
 Fire Dynamics Simulator

 Current Date     : October  9, 2022  18:54:33
 Revision         : FDS6.7.7-0-gfe0d4ef38-release
 Revision Date    : Thu Nov 18 17:10:22 2021 -0500
 Compiler         : Intel ifort 2021.4.0
 Compilation Date : Fri 11/19/2021  08:57 AM

 MPI Enabled;    Number of MPI Processes:       1
 OpenMP Enabled; Number of OpenMP Threads:      4

 MPI version: 3.1
 MPI library version: Intel(R) MPI Library 2021.4 for Windows* OS


 Job TITLE        : This is an example case
 Job ID string    : fire_whirl_try4


 Grid Dimensions, Mesh     1

   Cells in the X Direction           136
   Cells in the Y Direction            34
   Cells in the Z Direction            40
   Number of Grid Cells            184960


 Physical Dimensions, Mesh     1

   Length (m)                       6.800
   Width  (m)                       1.700
   Height (m)                       2.000
   Initial Time Step (s)            0.056

Total Number of Grid Cells        184960


 Miscellaneous Parameters

   Simulation Start Time (s)          0.0
   Simulation End Time (s)           20.0
   LES Calculation
   Eddy Viscosity:           Deardorff Model (C_DEARDORFF = 0.10)
   Near-wall Eddy Viscosity: WALE Model (C_WALE = 0.60)
   Turbulent Prandtl Number:         0.50
   Turbulent Schmidt Number:         0.50
   Background Pressure (Pa):    101325.00
   Ambient Temperature (C):         20.00


 Background Stratification

      Z (m)     P_0 (Pa)    TMP_0 (C)
   ------------------------------------
        1.98    101301.85     20.00
        1.93    101302.43     20.00
        1.88    101303.02     20.00
        1.83    101303.60     20.00
        1.77    101304.19     20.00
        1.73    101304.78     20.00
        1.68    101305.36     20.00
        1.62    101305.95     20.00
        1.58    101306.53     20.00
        1.52    101307.12     20.00
        1.48    101307.71     20.00
        1.43    101308.29     20.00
        1.38    101308.88     20.00
        1.33    101309.46     20.00
        1.27    101310.05     20.00
        1.23    101310.64     20.00
        1.18    101311.22     20.00
        1.12    101311.81     20.00
        1.08    101312.39     20.00
        1.02    101312.98     20.00
        0.98    101313.57     20.00
        0.93    101314.15     20.00
        0.88    101314.74     20.00
        0.83    101315.32     20.00
        0.78    101315.91     20.00
        0.73    101316.50     20.00
        0.68    101317.08     20.00
        0.62    101317.67     20.00
        0.58    101318.25     20.00
        0.53    101318.84     20.00
        0.47    101319.43     20.00
        0.43    101320.01     20.00
        0.38    101320.60     20.00
        0.33    101321.18     20.00
        0.28    101321.77     20.00
        0.23    101322.36     20.00
        0.18    101322.94     20.00
        0.12    101323.53     20.00
        0.08    101324.11     20.00
        0.03    101324.70     20.00


 Mass Fraction Transformation Matrix to Convert Species Mixtures (Columns) to Primitive Species (Rows)

                         AIR       N-HEPTAN  PRODUCTS
   N-HEPTANE             0.000000  1.000000  0.000000
   NITROGEN              0.762470  0.000000  0.715424
   OXYGEN                0.230997  0.000000  0.000000
   CARBON DIOXIDE        0.000591  0.000000  0.190254
   WATER VAPOR           0.005941  0.000000  0.094321
   CARBON MONOXIDE       0.000000  0.000000  0.000000
   SOOT                  0.000000  0.000000  0.000000
   HYDROGEN              0.000000  0.000000  0.000000
   HYDROGEN CYANIDE      0.000000  0.000000  0.000000


 Primitive Species Information

   N-HEPTANE
   Gas Species
   Molecular Weight (g/mol)           100.20194
   Ambient Density (kg/m^3)            4.166
   Enthalpy of Formation (J/kg)       -2.68E+07

   NITROGEN
   Gas Species
   Molecular Weight (g/mol)            28.01340
   Ambient Density (kg/m^3)            1.165
   Enthalpy of Formation (J/kg)        0.00E+00

   OXYGEN
   Gas Species
   Molecular Weight (g/mol)            31.99880
   Ambient Density (kg/m^3)            1.330
   Enthalpy of Formation (J/kg)        0.00E+00

   CARBON DIOXIDE
   Gas Species
   Molecular Weight (g/mol)            44.00950
   Ambient Density (kg/m^3)            1.830
   Enthalpy of Formation (J/kg)       -8.94E+06

   WATER VAPOR
   Gas Species
   Molecular Weight (g/mol)            18.01528
   Ambient Density (kg/m^3)            0.749
   Enthalpy of Formation (J/kg)       -1.34E+07

   CARBON MONOXIDE
   Gas Species
   Molecular Weight (g/mol)            28.01010
   Ambient Density (kg/m^3)            1.164
   Enthalpy of Formation (J/kg)       -3.95E+06

   SOOT
   Gas Species
   Molecular Weight (g/mol)            10.91042
   Ambient Density (kg/m^3)            0.454
   Enthalpy of Formation (J/kg)        0.00E+00

   HYDROGEN
   Gas Species
   Molecular Weight (g/mol)             2.01588
   Ambient Density (kg/m^3)            0.084
   Enthalpy of Formation (J/kg)        0.00E+00

   HYDROGEN CYANIDE
   Gas Species
   Molecular Weight (g/mol)            27.02534
   Ambient Density (kg/m^3)            1.123
   Enthalpy of Formation (J/kg)        4.92E+06


 Tracked (Lumped) Species Information

   AIR
   Molecular Weight (g/mol)            28.75198
   Ambient Density (kg/m^3)            1.195
   Initial Mass Fraction               1.000
   Enthalpy of Formation (J/kg)     -8.50E+04

   Sub Species                    Mass Fraction     Mole Fraction
   NITROGEN                       7.624699E-01      7.825727E-01
   OXYGEN                         2.309974E-01      2.075588E-01
   CARBON DIOXIDE                 5.914650E-04      3.864118E-04
   WATER VAPOR                    5.941209E-03      9.482037E-03
 
     Viscosity (kg/m/s) Ambient,  293 K:  1.80E-05
                                  500 K:  2.61E-05
                                 1000 K:  4.13E-05
                                 1500 K:  5.37E-05
   Therm. Cond. (W/m/K) Ambient,  293 K:  2.56E-02
                                  500 K:  3.81E-02
                                 1000 K:  6.69E-02
                                 1500 K:  9.25E-02
        Enthalpy (J/kg) Ambient,  293 K: -9.01E+04
                                  500 K:  1.22E+05
                                 1000 K:  6.72E+05
                                 1500 K:  1.27E+06
    Spec. Heat (J/kg/K) Ambient,  293 K:  1.02E+03
                                  500 K:  1.04E+03
                                 1000 K:  1.16E+03
                                 1500 K:  1.23E+03
   Diff. Coeff. (m^2/s) Ambient,  293 K:  1.99E-05
                                  500 K:  4.96E-05
                                 1000 K:  1.58E-04
                                 1500 K:  3.09E-04

   N-HEPTANE
   Molecular Weight (g/mol)           100.20194
   Ambient Density (kg/m^3)            4.166
   Initial Mass Fraction               0.000
   Enthalpy of Formation (J/kg)     -2.68E+07

   Sub Species                    Mass Fraction     Mole Fraction
   N-HEPTANE                      1.000000E+00      1.000000E+00
 
     Viscosity (kg/m/s) Ambient,  293 K:  1.54E-05
                                  500 K:  2.45E-05
                                 1000 K:  4.11E-05
                                 1500 K:  5.41E-05
   Therm. Cond. (W/m/K) Ambient,  293 K:  3.02E-02
                                  500 K:  7.42E-02
                                 1000 K:  1.89E-01
                                 1500 K:  2.89E-01
        Enthalpy (J/kg) Ambient,  293 K: -2.68E+07
                                  500 K: -2.64E+07
                                 1000 K: -2.47E+07
                                 1500 K: -2.27E+07
    Spec. Heat (J/kg/K) Ambient,  293 K:  1.63E+03
                                  500 K:  2.52E+03
                                 1000 K:  3.81E+03
                                 1500 K:  4.43E+03
   Diff. Coeff. (m^2/s) Ambient,  293 K:  1.10E-05
                                  500 K:  2.83E-05
                                 1000 K:  9.18E-05
                                 1500 K:  1.80E-04

   PRODUCTS
   Molecular Weight (g/mol)            28.49222
   Ambient Density (kg/m^3)            1.184
   Initial Mass Fraction               0.000
   Enthalpy of Formation (J/kg)     -2.97E+06

   Sub Species                    Mass Fraction     Mole Fraction
   NITROGEN                       7.154242E-01      7.276525E-01
   CARBON DIOXIDE                 1.902544E-01      1.231727E-01
   WATER VAPOR                    9.432140E-02      1.491748E-01
   CARBON MONOXIDE                0.000000E+00      0.000000E+00
   SOOT                           0.000000E+00      0.000000E+00
   HYDROGEN CYANIDE               0.000000E+00      0.000000E+00
 
     Viscosity (kg/m/s) Ambient,  293 K:  1.62E-05
                                  500 K:  2.40E-05
                                 1000 K:  3.90E-05
                                 1500 K:  5.15E-05
   Therm. Cond. (W/m/K) Ambient,  293 K:  2.34E-02
                                  500 K:  3.62E-02
                                 1000 K:  6.69E-02
                                 1500 K:  9.57E-02
        Enthalpy (J/kg) Ambient,  293 K: -2.97E+06
                                  500 K: -2.74E+06
                                 1000 K: -2.14E+06
                                 1500 K: -1.47E+06
    Spec. Heat (J/kg/K) Ambient,  293 K:  1.08E+03
                                  500 K:  1.13E+03
                                 1000 K:  1.29E+03
                                 1500 K:  1.39E+03
   Diff. Coeff. (m^2/s) Ambient,  293 K:  1.94E-05
                                  500 K:  4.93E-05
                                 1000 K:  1.59E-04
                                 1500 K:  3.13E-04


 Gas Phase Reaction Information

   Fuel                                           Heat of Combustion (kJ/kg)
   N-HEPTANE                                                      20000.0000

   Stoichiometry

   Primitive Species Stoich. Coeff.
   Species ID                                                          Molar
   N-HEPTANE                                                       -1.000000
   OXYGEN                                                         -11.000000
   CARBON DIOXIDE                                                   7.000000
   WATER VAPOR                                                      8.000000

   Tracked (Lumped) Species Stoich. Coeff.
   Species ID                                             Molar         Mass
   AIR                                               -52.997025   -15.206987
   N-HEPTANE                                          -1.000000    -1.000000
   PRODUCTS                                           56.997025    16.206987

   Reaction Kinetics

   Arrhenius Parameters
   Pre-exponential:    Infinite
   Activation Energy:  N/A

   ODE Solver:  EXPLICIT EULER
   Extinction Model:  EXTINCTION 2
   Auto-Ignition Temperature (K):       0.0
   Critical Flame Temperature (K):   1770.2


 Material Information


 Surface Conditions

   0 INERT (DEFAULT)

   1 line_burner_0
     HRR Per Unit Area (kW/m2)       2000.0
     N-HEPTANE Mass Flux (kg/s/m2)   1.00E-01

   2 line_burner_1
     HRR Per Unit Area (kW/m2)       2000.0
     N-HEPTANE Mass Flux (kg/s/m2)   1.00E-01

   3 line_burner_2
     HRR Per Unit Area (kW/m2)       2000.0
     N-HEPTANE Mass Flux (kg/s/m2)   1.00E-01

   4 line_burner_3
     HRR Per Unit Area (kW/m2)       2000.0
     N-HEPTANE Mass Flux (kg/s/m2)   1.00E-01

   5 line_burner_4
     HRR Per Unit Area (kW/m2)       2000.0
     N-HEPTANE Mass Flux (kg/s/m2)   1.00E-01

   6 line_burner_5
     HRR Per Unit Area (kW/m2)       2000.0
     N-HEPTANE Mass Flux (kg/s/m2)   1.00E-01

   7 line_burner_6
     HRR Per Unit Area (kW/m2)       2000.0
     N-HEPTANE Mass Flux (kg/s/m2)   1.00E-01

   8 line_burner_7
     HRR Per Unit Area (kW/m2)       2000.0
     N-HEPTANE Mass Flux (kg/s/m2)   1.00E-01

   9 line_burner_8
     HRR Per Unit Area (kW/m2)       2000.0
     N-HEPTANE Mass Flux (kg/s/m2)   1.00E-01

  10 line_burner_9
     HRR Per Unit Area (kW/m2)       2000.0
     N-HEPTANE Mass Flux (kg/s/m2)   1.00E-01

  11 line_burner_10
     HRR Per Unit Area (kW/m2)       2000.0
     N-HEPTANE Mass Flux (kg/s/m2)   1.00E-01

  12 line_burner_11
     HRR Per Unit Area (kW/m2)       2000.0
     N-HEPTANE Mass Flux (kg/s/m2)   1.00E-01

  13 line_burner_12
     HRR Per Unit Area (kW/m2)       2000.0
     N-HEPTANE Mass Flux (kg/s/m2)   1.00E-01

  14 line_burner_13
     HRR Per Unit Area (kW/m2)       2000.0
     N-HEPTANE Mass Flux (kg/s/m2)   1.00E-01

  15 sand_bed

  16 OPEN
     Passive Vent to Atmosphere

  17 MIRROR
     Symmetry Plane

  18 INTERPOLATED

  19 PERIODIC

  20 HVAC

  21 MASSLESS TRACER

  22 DROPLET

  23 EVACUATION_OUTFLOW
     Normal Velocity (m/s)         0.000

  24 MASSLESS TARGET

  25 PERIODIC FLOW ONLY


 Lagrangian Particle Classes


 Cut-off Density and Temperature

    Minimum Temperature:   -10.0 C
    Maximum Temperature:  2726.8 C
    Minimum Density:  1.195E-01 kg/m3
    Maximum Density:  9.281E+00 kg/m3


 Slice File Information, Mesh     1

   Sampling Interval (s)             0.020

   1 Nodes:  21  21   0  34   0  40, Quantity: TEMPERATURE


 Radiation Model Information

   Number of control angles  104
   Time step increment         3
   Angle increment             5
   Theta band N_phi   Solid angle
     1:        4     0.120
     2:       12     0.114
     3:       16     0.127
     4:       20     0.120
     5:       20     0.120
     6:       16     0.127
     7:       12     0.114
     8:        4     0.120
   Using gray gas absorption.
   Mean beam length  1.000E-01 m
 
 

 Run Time Diagnostics

       Time Step       1   October  9, 2022  18:54:34
       Step Size:    0.559E-01 s, Total Time:       0.06 s
       Pressure Iterations:      1
       Maximum Velocity Error:  0.23E-02 on Mesh   1 at (  31  16   2)
       Maximum Pressure Error:  0.10E-04 on Mesh   1 at (  30  16   1)
       ---------------------------------------------------------------
       Max CFL number:  0.28E-01 at (  95,  26,  23)
       Max divergence: -0.20E-04 at (  13,   2,   3)
       Min divergence: -0.66E-01 at (  29,  14,   2)
       Max VN number:   0.39E-01 at (  18,  19,   2)
 
       Time Step       2   October  9, 2022  18:54:35
       Step Size:    0.559E-01 s, Total Time:       0.11 s
       Pressure Iterations:      1
       Maximum Velocity Error:  0.14E-02 on Mesh   1 at (  34  17   2)
       Maximum Pressure Error:  0.34E-01 on Mesh   1 at (  32  15   2)
       ---------------------------------------------------------------
       Max CFL number:  0.28E-01 at (  95,  26,  23)
       Max divergence: -0.41E-04 at (  13,   2,   3)
       Min divergence: -0.99E-01 at (  29,  14,   2)
       Max VN number:   0.35E-01 at (  77,   1,  13)
 
       Time Step       3   October  9, 2022  18:54:35
       Step Size:    0.559E-01 s, Total Time:       0.17 s
       Pressure Iterations:      1
       Maximum Velocity Error:  0.12E-02 on Mesh   1 at (  31  15   2)
       Maximum Pressure Error:  0.14E+00 on Mesh   1 at (  39  19   2)
       ---------------------------------------------------------------
       Max CFL number:  0.28E-01 at (  95,  26,  23)
       Max divergence: -0.62E-04 at (  13,   2,   3)
       Min divergence: -0.12E+00 at (  29,  14,   2)
       Max VN number:   0.35E-01 at (  77,   1,  13)
 
       Time Step       4   October  9, 2022  18:54:35
       Step Size:    0.559E-01 s, Total Time:       0.22 s
       Pressure Iterations:      1
       Maximum Velocity Error:  0.12E-02 on Mesh   1 at (  39  18   2)
       Maximum Pressure Error:  0.30E+00 on Mesh   1 at (  39  19   2)
       ---------------------------------------------------------------
       Max CFL number:  0.28E-01 at (  95,  26,  23)
       Max divergence: -0.82E-04 at (  13,   2,   3)
       Min divergence: -0.14E+00 at (  19,  12,   2)
       Max VN number:   0.35E-01 at (  77,   1,  13)
 
       Time Step       5   October  9, 2022  18:54:36
       Step Size:    0.559E-01 s, Total Time:       0.28 s
       Pressure Iterations:      1
       Maximum Velocity Error:  0.13E-02 on Mesh   1 at (  51  23   2)
       Maximum Pressure Error:  0.50E+00 on Mesh   1 at (  51  22   2)
       ---------------------------------------------------------------
       Max CFL number:  0.35E-01 at (  50,  23,   2)
       Max divergence: -0.10E-03 at (  13,   2,   3)
       Min divergence: -0.15E+00 at (  47,  22,   2)
       Max VN number:   0.35E-01 at (  77,   1,  13)
 
       Time Step       6   October  9, 2022  18:54:36
       Step Size:    0.559E-01 s, Total Time:       0.34 s
       Pressure Iterations:      1
       Maximum Velocity Error:  0.14E-02 on Mesh   1 at (  51  23   2)
       Maximum Pressure Error:  0.79E+00 on Mesh   1 at (  51  22   2)
       ---------------------------------------------------------------
       Max CFL number:  0.49E-01 at (  50,  23,   2)
       Max divergence: -0.12E-03 at (  13,   2,   3)
       Min divergence: -0.15E+00 at (  23,  12,   2)
       Max VN number:   0.35E-01 at (  77,   1,  13)
 
       Time Step       7   October  9, 2022  18:54:37
       Step Size:    0.559E-01 s, Total Time:       0.39 s
       Pressure Iterations:      1
       Maximum Velocity Error:  0.14E-02 on Mesh   1 at (  29  15   2)
       Maximum Pressure Error:  0.11E+01 on Mesh   1 at (  40  18   2)
       ---------------------------------------------------------------
       Max CFL number:  0.69E-01 at (  23,  12,   2)
       Max divergence: -0.14E-03 at (  28,  17,   4)
       Min divergence: -0.18E+00 at (  36,  18,   2)
       Max VN number:   0.35E-01 at (  77,   1,  13)
 
       Time Step       8   October  9, 2022  18:54:37
       Step Size:    0.559E-01 s, Total Time:       0.45 s
       Pressure Iterations:      1
       Maximum Velocity Error:  0.15E-02 on Mesh   1 at (  44  20   2)
       Maximum Pressure Error:  0.15E+01 on Mesh   1 at (  40  18   2)
       ---------------------------------------------------------------
       Max CFL number:  0.93E-01 at (  36,  18,   2)
       Max divergence: -0.16E-03 at (  40,  15,   3)
       Min divergence: -0.21E+00 at (  36,  18,   2)
       Max VN number:   0.35E-01 at (  77,   1,  13)
 
       Time Step       9   October  9, 2022  18:54:37
       Step Size:    0.559E-01 s, Total Time:       0.50 s
       Pressure Iterations:      1
       Maximum Velocity Error:  0.16E-02 on Mesh   1 at (  44  20   2)
       Maximum Pressure Error:  0.19E+01 on Mesh   1 at (  40  18   2)
       ---------------------------------------------------------------
       Max CFL number:  0.12E+00 at (  36,  18,   2)
       Max divergence: -0.17E-03 at (  40,  15,   3)
       Min divergence: -0.24E+00 at (  36,  18,   2)
       Max VN number:   0.35E-01 at (  77,   1,  13)
 
       Time Step      10   October  9, 2022  18:54:38
       Step Size:    0.559E-01 s, Total Time:       0.56 s
       Pressure Iterations:      1
       Maximum Velocity Error:  0.18E-02 on Mesh   1 at (  44  20   2)
       Maximum Pressure Error:  0.24E+01 on Mesh   1 at (  48  21   2)
       ---------------------------------------------------------------
       Max CFL number:  0.15E+00 at (  54,  23,   2)
       Max divergence: -0.19E-03 at (  47,  26,   3)
       Min divergence: -0.27E+00 at (  54,  23,   2)
       Max VN number:   0.35E-01 at (  55,  24,   4)
 
       Time Step      20   October  9, 2022  18:54:41
       Step Size:    0.559E-01 s, Total Time:       1.12 s
       Pressure Iterations:      1
       Maximum Velocity Error:  0.17E-02 on Mesh   1 at (  21  10   1)
       Maximum Pressure Error:  0.18E+01 on Mesh   1 at (  51  22   2)
       ---------------------------------------------------------------
       Max CFL number:  0.41E+00 at (  18,  12,   2)
       Max divergence:  0.64E-01 at (  47,  19,   2)
       Min divergence: -0.36E+00 at (  44,  21,   2)
       Max VN number:   0.16E+00 at (  34,  19,   2)
 
       Time Step      30   October  9, 2022  18:54:45
       Step Size:    0.559E-01 s, Total Time:       1.68 s
       Pressure Iterations:      1
       Maximum Velocity Error:  0.28E-02 on Mesh   1 at (  46  14   1)
       Maximum Pressure Error:  0.16E+01 on Mesh   1 at (  46  15   2)
       ---------------------------------------------------------------
       Max CFL number:  0.51E+00 at (  46,  15,   2)
       Max divergence:  0.53E-01 at (  18,  13,   2)
       Min divergence: -0.33E+00 at (  35,  17,   3)
       Max VN number:   0.17E+00 at (  50,  27,   2)
 
       Time Step      40   October  9, 2022  18:54:49
       Step Size:    0.559E-01 s, Total Time:       2.24 s
       Pressure Iterations:      1
       Maximum Velocity Error:  0.39E-02 on Mesh   1 at (  35  27   1)
       Maximum Pressure Error:  0.19E+01 on Mesh   1 at (  45  30   2)
       ---------------------------------------------------------------
       Max CFL number:  0.59E+00 at (  49,  13,   2)
       Max divergence:  0.65E-01 at (  18,  13,   2)
       Min divergence: -0.31E+00 at (  35,  17,   3)
       Max VN number:   0.14E+00 at (  32,  15,   3)
 
       Time Step      50   October  9, 2022  18:54:53
       Step Size:    0.559E-01 s, Total Time:       2.80 s
       Pressure Iterations:      1
       Maximum Velocity Error:  0.55E-02 on Mesh   1 at (  34  28   1)
       Maximum Pressure Error:  0.17E+01 on Mesh   1 at (  43  33   2)
       ---------------------------------------------------------------
       Max CFL number:  0.69E+00 at (  27,  26,   2)
       Max divergence:  0.72E-01 at (  55,  22,   2)
       Min divergence: -0.30E+00 at (  49,  22,   3)
       Max VN number:   0.15E+00 at (  18,  13,   3)
 
       Time Step      60   October  9, 2022  18:54:57
       Step Size:    0.559E-01 s, Total Time:       3.35 s
       Pressure Iterations:      1
       Maximum Velocity Error:  0.13E-01 on Mesh   1 at (  36  34   1)
       Maximum Pressure Error:  0.17E+01 on Mesh   1 at (  48   5   2)
       ---------------------------------------------------------------
       Max CFL number:  0.75E+00 at (  36,  33,   2)
       Max divergence:  0.70E-01 at (  18,  13,   2)
       Min divergence: -0.30E+00 at (  49,  22,   3)
       Max VN number:   0.17E+00 at (  41,  34,   2)
 
       Time Step      70   October  9, 2022  18:55:00
       Step Size:    0.559E-01 s, Total Time:       3.91 s
       Pressure Iterations:      1
       Maximum Velocity Error:  0.15E-01 on Mesh   1 at (  50   1   1)
       Maximum Pressure Error:  0.17E+01 on Mesh   1 at (  23  33   2)
       ---------------------------------------------------------------
       Max CFL number:  0.80E+00 at (  23,  33,   2)
       Max divergence:  0.66E-01 at (  55,  22,   2)
       Min divergence: -0.30E+00 at (  49,  22,   3)
       Max VN number:   0.24E+00 at (  39,  34,   7)
 
       Time Step      80   October  9, 2022  18:55:04
       Step Size:    0.559E-01 s, Total Time:       4.47 s
       Pressure Iterations:      1
       Maximum Velocity Error:  0.14E-01 on Mesh   1 at (  53   1   1)
       Maximum Pressure Error:  0.10E+01 on Mesh   1 at (  53   1   1)
       ---------------------------------------------------------------
       Max CFL number:  0.76E+00 at (  61,   5,   2)
       Max divergence:  0.71E-01 at (  51,  26,   2)
       Min divergence: -0.31E+00 at (  19,  12,   2)
       Max VN number:   0.20E+00 at (  54,   1,   2)
 
       Time Step      90   October  9, 2022  18:55:08
       Step Size:    0.559E-01 s, Total Time:       5.03 s
       Pressure Iterations:      1
       Maximum Velocity Error:  0.66E-02 on Mesh   1 at (  64   1   1)
       Maximum Pressure Error:  0.82E+00 on Mesh   1 at (  64   2   2)
       ---------------------------------------------------------------
       Max CFL number:  0.72E+00 at (  63,   3,   2)
       Max divergence:  0.79E-01 at (  51,  26,   2)
       Min divergence: -0.33E+00 at (  19,  12,   2)
       Max VN number:   0.32E+00 at (   9,   1,   5)
 
       Time Step     100   October  9, 2022  18:55:11
       Step Size:    0.559E-01 s, Total Time:       5.59 s
       Pressure Iterations:      1
       Maximum Velocity Error:  0.15E-01 on Mesh   1 at (  66   1   1)
       Maximum Pressure Error:  0.98E+00 on Mesh   1 at (  57   3   2)
       ---------------------------------------------------------------
       Max CFL number:  0.71E+00 at (  12,  34,   6)
       Max divergence:  0.96E-01 at (  43,  23,   2)
       Min divergence: -0.32E+00 at (  19,  12,   2)
       Max VN number:   0.47E+00 at (   6,   1,   5)
 
       Time Step     200   October  9, 2022  18:55:49
       Step Size:    0.559E-01 s, Total Time:      11.18 s
       Pressure Iterations:      1
       Maximum Velocity Error:  0.20E-02 on Mesh   1 at (  18  11   2)
       Maximum Pressure Error:  0.21E+01 on Mesh   1 at (  21  11   2)
       ---------------------------------------------------------------
       Max CFL number:  0.90E+00 at ( 108,   5,   1)
       Max divergence:  0.15E+00 at (  52,  25,   2)
       Min divergence: -0.28E+00 at (  54,  24,   3)
       Max VN number:   0.60E+00 at (   2,   1,   3)
 
       Time Step     300   October  9, 2022  18:56:26
       Step Size:    0.559E-01 s, Total Time:      16.77 s
       Pressure Iterations:      1
       Maximum Velocity Error:  0.30E-02 on Mesh   1 at (  68   1   1)
       Maximum Pressure Error:  0.12E+01 on Mesh   1 at (  68   1   2)
       ---------------------------------------------------------------
       Max CFL number:  0.82E+00 at ( 136,  28,   1)
       Max divergence:  0.17E+00 at (  52,  25,   2)
       Min divergence: -0.26E+00 at (  19,  12,   2)
       Max VN number:   0.51E+00 at ( 134,  33,   1)
 
       Time Step     358   October  9, 2022  18:56:48
       Step Size:    0.431E-01 s, Total Time:      20.00 s
       Pressure Iterations:      1
       Maximum Velocity Error:  0.11E-02 on Mesh   1 at (  69   1   1)
       Maximum Pressure Error:  0.61E+00 on Mesh   1 at (  40  18   2)
       ---------------------------------------------------------------
       Max CFL number:  0.56E+00 at (  74,   2,   2)
       Max divergence:  0.16E+00 at (  52,  25,   2)
       Min divergence: -0.26E+00 at (  19,  12,   2)
       Max VN number:   0.27E+00 at (  74,   1,   4)
 


 Time Stepping Wall Clock Time (s):      134.725
 Total Elapsed Wall Clock Time (s):      139.983

STOP: FDS completed successfully (CHID: fire_whirl_try4)
