
 Fire Dynamics Simulator

 Current Date     : October 12, 2022  11:28:32
 Revision         : FDS6.7.5-0-g71f025606-release
 Revision Date    : Thu Aug 20 16:19:01 2020 -0400
 Compiler         : Intel ifort 19.1.1.216
 Compilation Date : Fri 08/21/2020  04:51 PM

 MPI Enabled;    Number of MPI Processes:       1
 OpenMP Enabled; Number of OpenMP Threads:      4

 MPI version: 3.1
 MPI library version: Intel(R) MPI Library 2019 Update 7 for Windows* OS


 Job TITLE        : This is an example case
 Job ID string    : fire_whirl_try4


 Grid Dimensions, Mesh     1

   Cells in the X Direction           680
   Cells in the Y Direction           170
   Cells in the Z Direction           200
   Number of Grid Cells          23120000


 Physical Dimensions, Mesh     1

   Length (m)                       6.800
   Width  (m)                       1.700
   Height (m)                       2.000
   Initial Time Step (s)            0.011

Total Number of Grid Cells      23120000


 Miscellaneous Parameters

   Simulation Start Time (s)          0.0
   Simulation End Time (s)           10.0
   LES Calculation
   Eddy Viscosity:           Deardorff Model (C_DEARDORFF = 0.10)
   Near-wall Eddy Viscosity: Smagorinsky with Van Driest damping (C_SMAGORINSKY = 0.20)
   Turbulent Prandtl Number:         0.50
   Turbulent Schmidt Number:         0.50
   Ambient Temperature (C):         20.00


 Mass Fraction Transformation Matrix to Convert Species Mixtures (Columns) to Primitive Species (Rows)

                         AIR       N-HEPTAN  PRODUCTS
   N-HEPTANE             0.000000  1.000000  0.000000
   NITROGEN              0.762470  0.000000  0.715424
   OXYGEN                0.230997  0.000000  0.000000
   CARBON DIOXIDE        0.000591  0.000000  0.190254
   CARBON MONOXIDE       0.000000  0.000000  0.000000
   WATER VAPOR           0.005941  0.000000  0.094321
   SOOT                  0.000000  0.000000  0.000000
   HYDROGEN              0.000000  0.000000  0.000000


 Primitive Species Information

   N-HEPTANE
   Gas Species
   Molecular Weight (g/mol)           100.20194
   Ambient Density (kg/m^3)            4.166
   Enthalpy of Formation (J/kg)       -1.87E+06

   NITROGEN
   Gas Species
   Molecular Weight (g/mol)            28.01340
   Ambient Density (kg/m^3)            1.165
   Enthalpy of Formation (J/kg)        0.00E+00

   OXYGEN
   Gas Species
   Molecular Weight (g/mol)            31.99880
   Ambient Density (kg/m^3)            1.330
   Enthalpy of Formation (J/kg)        0.00E+00

   CARBON DIOXIDE
   Gas Species
   Molecular Weight (g/mol)            44.00950
   Ambient Density (kg/m^3)            1.830
   Enthalpy of Formation (J/kg)       -8.94E+06

   CARBON MONOXIDE
   Gas Species
   Molecular Weight (g/mol)            28.01010
   Ambient Density (kg/m^3)            1.164
   Enthalpy of Formation (J/kg)       -3.95E+06

   WATER VAPOR
   Gas Species
   Molecular Weight (g/mol)            18.01528
   Ambient Density (kg/m^3)            0.749
   Enthalpy of Formation (J/kg)       -1.34E+07

   SOOT
   Gas Species
   Molecular Weight (g/mol)            10.91042
   Ambient Density (kg/m^3)            0.454
   Enthalpy of Formation (J/kg)        0.00E+00

   HYDROGEN
   Gas Species
   Molecular Weight (g/mol)             2.01588
   Ambient Density (kg/m^3)            0.084
   Enthalpy of Formation (J/kg)        0.00E+00


 Tracked (Lumped) Species Information

   AIR
   Molecular Weight (g/mol)            28.75199
   Ambient Density (kg/m^3)            1.195
   Initial Mass Fraction               1.000
   Enthalpy of Formation (J/kg)     -8.50E+04

   Sub Species                    Mass Fraction     Mole Fraction
   NITROGEN                       7.624701E-01      7.825730E-01
   OXYGEN                         2.309974E-01      2.075589E-01
   CARBON DIOXIDE                 5.914651E-04      3.864120E-04
   WATER VAPOR                    5.940984E-03      9.481679E-03
 
     Viscosity (kg/m/s) Ambient,  293 K:  1.80E-05
                                  500 K:  2.61E-05
                                 1000 K:  4.13E-05
                                 1500 K:  5.37E-05
   Therm. Cond. (W/m/K) Ambient,  293 K:  2.56E-02
                                  500 K:  3.81E-02
                                 1000 K:  6.69E-02
                                 1500 K:  9.25E-02
        Enthalpy (J/kg) Ambient,  293 K: -9.01E+04
                                  500 K:  1.22E+05
                                 1000 K:  6.72E+05
                                 1500 K:  1.27E+06
    Spec. Heat (J/kg/K) Ambient,  293 K:  1.02E+03
                                  500 K:  1.04E+03
                                 1000 K:  1.16E+03
                                 1500 K:  1.23E+03
   Diff. Coeff. (m^2/s) Ambient,  293 K:  1.99E-05
                                  500 K:  4.96E-05
                                 1000 K:  1.58E-04
                                 1500 K:  3.09E-04

   N-HEPTANE
   Molecular Weight (g/mol)           100.20194
   Ambient Density (kg/m^3)            4.166
   Initial Mass Fraction               0.000
   Enthalpy of Formation (J/kg)     -1.87E+06

   Sub Species                    Mass Fraction     Mole Fraction
   N-HEPTANE                      1.000000E+00      1.000000E+00
 
     Viscosity (kg/m/s) Ambient,  293 K:  1.54E-05
                                  500 K:  2.45E-05
                                 1000 K:  4.11E-05
                                 1500 K:  5.41E-05
   Therm. Cond. (W/m/K) Ambient,  293 K:  3.02E-02
                                  500 K:  7.42E-02
                                 1000 K:  1.89E-01
                                 1500 K:  2.89E-01
        Enthalpy (J/kg) Ambient,  293 K: -1.88E+06
                                  500 K: -1.45E+06
                                 1000 K:  1.74E+05
                                 1500 K:  2.25E+06
    Spec. Heat (J/kg/K) Ambient,  293 K:  1.63E+03
                                  500 K:  2.52E+03
                                 1000 K:  3.81E+03
                                 1500 K:  4.43E+03
   Diff. Coeff. (m^2/s) Ambient,  293 K:  1.10E-05
                                  500 K:  2.83E-05
                                 1000 K:  9.18E-05
                                 1500 K:  1.80E-04

   PRODUCTS
   Molecular Weight (g/mol)            28.49222
   Ambient Density (kg/m^3)            1.184
   Initial Mass Fraction               0.000
   Enthalpy of Formation (J/kg)     -2.97E+06

   Sub Species                    Mass Fraction     Mole Fraction
   NITROGEN                       7.154243E-01      7.276527E-01
   CARBON DIOXIDE                 1.902545E-01      1.231728E-01
   CARBON MONOXIDE                0.000000E+00      0.000000E+00
   WATER VAPOR                    9.432121E-02      1.491745E-01
   SOOT                           0.000000E+00      0.000000E+00
 
     Viscosity (kg/m/s) Ambient,  293 K:  1.62E-05
                                  500 K:  2.40E-05
                                 1000 K:  3.90E-05
                                 1500 K:  5.15E-05
   Therm. Cond. (W/m/K) Ambient,  293 K:  2.34E-02
                                  500 K:  3.62E-02
                                 1000 K:  6.69E-02
                                 1500 K:  9.57E-02
        Enthalpy (J/kg) Ambient,  293 K: -2.97E+06
                                  500 K: -2.74E+06
                                 1000 K: -2.14E+06
                                 1500 K: -1.47E+06
    Spec. Heat (J/kg/K) Ambient,  293 K:  1.08E+03
                                  500 K:  1.13E+03
                                 1000 K:  1.29E+03
                                 1500 K:  1.39E+03
   Diff. Coeff. (m^2/s) Ambient,  293 K:  1.94E-05
                                  500 K:  4.93E-05
                                 1000 K:  1.59E-04
                                 1500 K:  3.13E-04


 Gas Phase Reaction Information

   Fuel                                           Heat of Combustion (kJ/kg)
   N-HEPTANE                                                      44923.2620

   Stoichiometry

   Primitive Species Stoich. Coeff.
   Species ID                                                          Molar
   N-HEPTANE                                                       -1.000000
   NITROGEN                                                         0.000000
   OXYGEN                                                         -11.000000
   CARBON DIOXIDE                                                   7.000000
   WATER VAPOR                                                      8.000000

   Tracked (Lumped) Species Stoich. Coeff.
   Species ID                                             Molar         Mass
   AIR                                               -52.997005   -15.206983
   N-HEPTANE                                          -1.000000    -1.000000
   PRODUCTS                                           56.997005    16.206983

   Reaction Kinetics

   Arrhenius Parameters
   Pre-exponential:    Infinite
   Activation Energy:  N/A

   ODE Solver:  EXPLICIT EULER
   Extinction Model:  EXTINCTION 2
   Auto-Ignition Temperature (K):       0.0
   Critical Flame Temperature (K):   1770.2


 Material Information


 Surface Conditions

   0 INERT (DEFAULT)

   1 supply
     Normal Velocity (m/s)        -0.490
     AIR Mass Fraction         1.000

   2 line_burner_0
     HRR Per Unit Area (kW/m2)        800.0
     N-HEPTANE Mass Flux (kg/s/m2)   1.78E-02

   3 line_burner_1
     HRR Per Unit Area (kW/m2)        800.0
     N-HEPTANE Mass Flux (kg/s/m2)   1.78E-02

   4 line_burner_2
     HRR Per Unit Area (kW/m2)        800.0
     N-HEPTANE Mass Flux (kg/s/m2)   1.78E-02

   5 line_burner_3
     HRR Per Unit Area (kW/m2)        800.0
     N-HEPTANE Mass Flux (kg/s/m2)   1.78E-02

   6 line_burner_4
     HRR Per Unit Area (kW/m2)        800.0
     N-HEPTANE Mass Flux (kg/s/m2)   1.78E-02

   7 line_burner_5
     HRR Per Unit Area (kW/m2)        800.0
     N-HEPTANE Mass Flux (kg/s/m2)   1.78E-02

   8 line_burner_6
     HRR Per Unit Area (kW/m2)        800.0
     N-HEPTANE Mass Flux (kg/s/m2)   1.78E-02

   9 line_burner_7
     HRR Per Unit Area (kW/m2)        800.0
     N-HEPTANE Mass Flux (kg/s/m2)   1.78E-02

  10 line_burner_8
     HRR Per Unit Area (kW/m2)        800.0
     N-HEPTANE Mass Flux (kg/s/m2)   1.78E-02

  11 line_burner_9
     HRR Per Unit Area (kW/m2)        800.0
     N-HEPTANE Mass Flux (kg/s/m2)   1.78E-02

  12 line_burner_10
     HRR Per Unit Area (kW/m2)        800.0
     N-HEPTANE Mass Flux (kg/s/m2)   1.78E-02

  13 line_burner_11
     HRR Per Unit Area (kW/m2)        800.0
     N-HEPTANE Mass Flux (kg/s/m2)   1.78E-02

  14 line_burner_12
     HRR Per Unit Area (kW/m2)        800.0
     N-HEPTANE Mass Flux (kg/s/m2)   1.78E-02

  15 line_burner_13
     HRR Per Unit Area (kW/m2)        800.0
     N-HEPTANE Mass Flux (kg/s/m2)   1.78E-02

  16 line_burner_14
     HRR Per Unit Area (kW/m2)        800.0
     N-HEPTANE Mass Flux (kg/s/m2)   1.78E-02

  17 line_burner_15
     HRR Per Unit Area (kW/m2)        800.0
     N-HEPTANE Mass Flux (kg/s/m2)   1.78E-02

  18 line_burner_16
     HRR Per Unit Area (kW/m2)        800.0
     N-HEPTANE Mass Flux (kg/s/m2)   1.78E-02

  19 line_burner_17
     HRR Per Unit Area (kW/m2)        800.0
     N-HEPTANE Mass Flux (kg/s/m2)   1.78E-02

  20 line_burner_18
     HRR Per Unit Area (kW/m2)        800.0
     N-HEPTANE Mass Flux (kg/s/m2)   1.78E-02

  21 line_burner_19
     HRR Per Unit Area (kW/m2)        800.0
     N-HEPTANE Mass Flux (kg/s/m2)   1.78E-02

  22 line_burner_20
     HRR Per Unit Area (kW/m2)        800.0
     N-HEPTANE Mass Flux (kg/s/m2)   1.78E-02

  23 line_burner_21
     HRR Per Unit Area (kW/m2)        800.0
     N-HEPTANE Mass Flux (kg/s/m2)   1.78E-02

  24 line_burner_22
     HRR Per Unit Area (kW/m2)        800.0
     N-HEPTANE Mass Flux (kg/s/m2)   1.78E-02

  25 line_burner_23
     HRR Per Unit Area (kW/m2)        800.0
     N-HEPTANE Mass Flux (kg/s/m2)   1.78E-02

  26 line_burner_24
     HRR Per Unit Area (kW/m2)        800.0
     N-HEPTANE Mass Flux (kg/s/m2)   1.78E-02

  27 line_burner_25
     HRR Per Unit Area (kW/m2)        800.0
     N-HEPTANE Mass Flux (kg/s/m2)   1.78E-02

  28 line_burner_26
     HRR Per Unit Area (kW/m2)        800.0
     N-HEPTANE Mass Flux (kg/s/m2)   1.78E-02

  29 line_burner_27
     HRR Per Unit Area (kW/m2)        800.0
     N-HEPTANE Mass Flux (kg/s/m2)   1.78E-02

  30 line_burner_28
     HRR Per Unit Area (kW/m2)        800.0
     N-HEPTANE Mass Flux (kg/s/m2)   1.78E-02

  31 line_burner_29
     HRR Per Unit Area (kW/m2)        800.0
     N-HEPTANE Mass Flux (kg/s/m2)   1.78E-02

  32 line_burner_30
     HRR Per Unit Area (kW/m2)        800.0
     N-HEPTANE Mass Flux (kg/s/m2)   1.78E-02

  33 line_burner_31
     HRR Per Unit Area (kW/m2)        800.0
     N-HEPTANE Mass Flux (kg/s/m2)   1.78E-02

  34 line_burner_32
     HRR Per Unit Area (kW/m2)        800.0
     N-HEPTANE Mass Flux (kg/s/m2)   1.78E-02

  35 line_burner_33
     HRR Per Unit Area (kW/m2)        800.0
     N-HEPTANE Mass Flux (kg/s/m2)   1.78E-02

  36 line_burner_34
     HRR Per Unit Area (kW/m2)        800.0
     N-HEPTANE Mass Flux (kg/s/m2)   1.78E-02

  37 line_burner_35
     HRR Per Unit Area (kW/m2)        800.0
     N-HEPTANE Mass Flux (kg/s/m2)   1.78E-02

  38 line_burner_36
     HRR Per Unit Area (kW/m2)        800.0
     N-HEPTANE Mass Flux (kg/s/m2)   1.78E-02

  39 line_burner_37
     HRR Per Unit Area (kW/m2)        800.0
     N-HEPTANE Mass Flux (kg/s/m2)   1.78E-02

  40 line_burner_38
     HRR Per Unit Area (kW/m2)        800.0
     N-HEPTANE Mass Flux (kg/s/m2)   1.78E-02

  41 line_burner_39
     HRR Per Unit Area (kW/m2)        800.0
     N-HEPTANE Mass Flux (kg/s/m2)   1.78E-02

  42 line_burner_40
     HRR Per Unit Area (kW/m2)        800.0
     N-HEPTANE Mass Flux (kg/s/m2)   1.78E-02

  43 line_burner_41
     HRR Per Unit Area (kW/m2)        800.0
     N-HEPTANE Mass Flux (kg/s/m2)   1.78E-02

  44 line_burner_42
     HRR Per Unit Area (kW/m2)        800.0
     N-HEPTANE Mass Flux (kg/s/m2)   1.78E-02

  45 line_burner_43
     HRR Per Unit Area (kW/m2)        800.0
     N-HEPTANE Mass Flux (kg/s/m2)   1.78E-02

  46 line_burner_44
     HRR Per Unit Area (kW/m2)        800.0
     N-HEPTANE Mass Flux (kg/s/m2)   1.78E-02

  47 line_burner_45
     HRR Per Unit Area (kW/m2)        800.0
     N-HEPTANE Mass Flux (kg/s/m2)   1.78E-02

  48 line_burner_46
     HRR Per Unit Area (kW/m2)        800.0
     N-HEPTANE Mass Flux (kg/s/m2)   1.78E-02

  49 line_burner_47
     HRR Per Unit Area (kW/m2)        800.0
     N-HEPTANE Mass Flux (kg/s/m2)   1.78E-02

  50 line_burner_48
     HRR Per Unit Area (kW/m2)        800.0
     N-HEPTANE Mass Flux (kg/s/m2)   1.78E-02

  51 line_burner_49
     HRR Per Unit Area (kW/m2)        800.0
     N-HEPTANE Mass Flux (kg/s/m2)   1.78E-02

  52 line_burner_50
     HRR Per Unit Area (kW/m2)        800.0
     N-HEPTANE Mass Flux (kg/s/m2)   1.78E-02

  53 line_burner_51
     HRR Per Unit Area (kW/m2)        800.0
     N-HEPTANE Mass Flux (kg/s/m2)   1.78E-02

  54 line_burner_52
     HRR Per Unit Area (kW/m2)        800.0
     N-HEPTANE Mass Flux (kg/s/m2)   1.78E-02

  55 line_burner_53
     HRR Per Unit Area (kW/m2)        800.0
     N-HEPTANE Mass Flux (kg/s/m2)   1.78E-02

  56 line_burner_54
     HRR Per Unit Area (kW/m2)        800.0
     N-HEPTANE Mass Flux (kg/s/m2)   1.78E-02

  57 line_burner_55
     HRR Per Unit Area (kW/m2)        800.0
     N-HEPTANE Mass Flux (kg/s/m2)   1.78E-02

  58 line_burner_56
     HRR Per Unit Area (kW/m2)        800.0
     N-HEPTANE Mass Flux (kg/s/m2)   1.78E-02

  59 line_burner_57
     HRR Per Unit Area (kW/m2)        800.0
     N-HEPTANE Mass Flux (kg/s/m2)   1.78E-02

  60 line_burner_58
     HRR Per Unit Area (kW/m2)        800.0
     N-HEPTANE Mass Flux (kg/s/m2)   1.78E-02

  61 line_burner_59
     HRR Per Unit Area (kW/m2)        800.0
     N-HEPTANE Mass Flux (kg/s/m2)   1.78E-02

  62 line_burner_60
     HRR Per Unit Area (kW/m2)        800.0
     N-HEPTANE Mass Flux (kg/s/m2)   1.78E-02

  63 line_burner_61
     HRR Per Unit Area (kW/m2)        800.0
     N-HEPTANE Mass Flux (kg/s/m2)   1.78E-02

  64 line_burner_62
     HRR Per Unit Area (kW/m2)        800.0
     N-HEPTANE Mass Flux (kg/s/m2)   1.78E-02

  65 line_burner_63
     HRR Per Unit Area (kW/m2)        800.0
     N-HEPTANE Mass Flux (kg/s/m2)   1.78E-02

  66 line_burner_64
     HRR Per Unit Area (kW/m2)        800.0
     N-HEPTANE Mass Flux (kg/s/m2)   1.78E-02

  67 line_burner_65
     HRR Per Unit Area (kW/m2)        800.0
     N-HEPTANE Mass Flux (kg/s/m2)   1.78E-02

  68 line_burner_66
     HRR Per Unit Area (kW/m2)        800.0
     N-HEPTANE Mass Flux (kg/s/m2)   1.78E-02

  69 line_burner_67
     HRR Per Unit Area (kW/m2)        800.0
     N-HEPTANE Mass Flux (kg/s/m2)   1.78E-02

  70 line_burner_68
     HRR Per Unit Area (kW/m2)        800.0
     N-HEPTANE Mass Flux (kg/s/m2)   1.78E-02

  71 line_burner_69
     HRR Per Unit Area (kW/m2)        800.0
     N-HEPTANE Mass Flux (kg/s/m2)   1.78E-02

  72 line_burner_70
     HRR Per Unit Area (kW/m2)        800.0
     N-HEPTANE Mass Flux (kg/s/m2)   1.78E-02

  73 line_burner_71
     HRR Per Unit Area (kW/m2)        800.0
     N-HEPTANE Mass Flux (kg/s/m2)   1.78E-02

  74 sand_bed

  75 OPEN
     Passive Vent to Atmosphere

  76 MIRROR
     Symmetry Plane

  77 INTERPOLATED

  78 PERIODIC

  79 HVAC

  80 MASSLESS TRACER

  81 DROPLET

  82 EVACUATION_OUTFLOW
     Normal Velocity (m/s)         0.000

  83 MASSLESS TARGET

  84 PERIODIC FLOW ONLY


 Slice File Information, Mesh     1

   Sampling Interval (s)             0.010

   1 Nodes: 101 101   0 170   0 200, Quantity: TEMPERATURE
   2 Nodes: 401 401   0 170   0 200, Quantity: VELOCITY


 Radiation Model Information

   Number of control angles  104
   Time step increment         3
   Angle increment             5
   Theta band N_phi   Solid angle
     1:        4     0.120
     2:       12     0.114
     3:       16     0.127
     4:       20     0.120
     5:       20     0.120
     6:       16     0.127
     7:       12     0.114
     8:        4     0.120
   Using gray gas absorption.
   Mean beam length  0.100 m
 
 

 Run Time Diagnostics

       Time Step       1   October 12, 2022  11:32:55
       Step Size:    0.112E-01 s, Total Time:       0.01 s
       Pressure Iterations:      1
       Maximum Velocity Error:  0.22E-02 on Mesh   1 at ( 252 114   6)
       Maximum Pressure Error:  0.89E-02 on Mesh   1 at ( 680   1 119)
       ---------------------------------------------------------------
       Max CFL number:  0.31E-01 at ( 679,  92, 198)
       Max divergence:  0.19E-05 at ( 678,  72, 199)
       Min divergence: -0.23E-01 at ( 191,  92,   7)
       Max VN number:   0.37E-01 at ( 449, 127, 194)
 
       Time Step       2   October 12, 2022  11:34:57
       Step Size:    0.112E-01 s, Total Time:       0.02 s
       Pressure Iterations:      2
       Maximum Velocity Error:  0.26E-02 on Mesh   1 at (  99  53   5)
       Maximum Pressure Error:  0.30E+01 on Mesh   1 at ( 146  70   6)
       ---------------------------------------------------------------
       Max CFL number:  0.47E-01 at ( 680, 101, 200)
       Max divergence:  0.17E+01 at ( 247, 107,   6)
       Min divergence: -0.23E-05 at ( 133,  72,   8)
       Max VN number:   0.37E-01 at ( 449, 127, 194)
       Total Heat Release Rate:              0.601 kW
 
       Time Step       3   October 12, 2022  11:37:06
       Step Size:    0.112E-01 s, Total Time:       0.03 s
       Pressure Iterations:      1
       Maximum Velocity Error:  0.31E-02 on Mesh   1 at ( 265 119   5)
       Maximum Pressure Error:  0.24E+03 on Mesh   1 at ( 210  99   6)
       ---------------------------------------------------------------
       Max CFL number:  0.65E-01 at ( 680,  88, 200)
       Max divergence:  0.42E+01 at (  86,  52,   7)
       Min divergence: -0.15E-05 at (  21,  71,  56)
       Max VN number:   0.37E-01 at ( 449, 127, 194)
       Total Heat Release Rate:              1.454 kW
       Radiation Loss to Boundaries:        -0.017 kW
 
       Time Step       4   October 12, 2022  11:39:49
       Step Size:    0.112E-01 s, Total Time:       0.04 s
       Pressure Iterations:      1
       Maximum Velocity Error:  0.29E-02 on Mesh   1 at ( 265 119   5)
       Maximum Pressure Error:  0.95E+03 on Mesh   1 at ( 158  80   7)
       ---------------------------------------------------------------
       Max CFL number:  0.85E-01 at ( 680,  88, 200)
       Max divergence:  0.65E+01 at (  86,  52,   7)
       Min divergence: -0.14E-05 at ( 161, 127,  26)
       Max VN number:   0.36E-01 at ( 449, 127, 194)
       Total Heat Release Rate:              2.467 kW
       Radiation Loss to Boundaries:        -0.036 kW
 
       Time Step       5   October 12, 2022  11:42:25
       Step Size:    0.112E-01 s, Total Time:       0.06 s
       Pressure Iterations:      1
       Maximum Velocity Error:  0.25E-02 on Mesh   1 at ( 271 121   7)
       Maximum Pressure Error:  0.22E+04 on Mesh   1 at ( 204  97   7)
       ---------------------------------------------------------------
       Max CFL number:  0.12E+00 at (  86,  52,   7)
       Max divergence:  0.91E+01 at (  86,  52,   7)
       Min divergence: -0.14E-05 at (   7, 157,  10)
       Max VN number:   0.38E-01 at ( 193,  93,   8)
       Total Heat Release Rate:              3.669 kW
       Radiation Loss to Boundaries:        -0.058 kW
 
       Time Step       6   October 12, 2022  11:44:55
       Step Size:    0.112E-01 s, Total Time:       0.07 s
       Pressure Iterations:      1
       Maximum Velocity Error:  0.21E-02 on Mesh   1 at ( 271 121   7)
       Maximum Pressure Error:  0.39E+04 on Mesh   1 at ( 204  97   7)
       ---------------------------------------------------------------
       Max CFL number:  0.16E+00 at (  86,  52,   7)
       Max divergence:  0.12E+02 at (  87,  50,   6)
       Min divergence: -0.14E-05 at (   7, 157,  10)
       Max VN number:   0.42E-01 at ( 144,  75,   8)
       Total Heat Release Rate:              4.988 kW
       Radiation Loss to Boundaries:        -0.084 kW
 
       Time Step       7   October 12, 2022  11:47:36
       Step Size:    0.112E-01 s, Total Time:       0.08 s
       Pressure Iterations:      1
       Maximum Velocity Error:  0.26E-02 on Mesh   1 at ( 271 121   7)
       Maximum Pressure Error:  0.57E+04 on Mesh   1 at ( 191  92   6)
       ---------------------------------------------------------------
       Max CFL number:  0.20E+00 at (  86,  52,   7)
       Max divergence:  0.14E+02 at (  86,  52,   6)
       Min divergence: -0.14E-05 at (   7, 157,  10)
       Max VN number:   0.49E-01 at ( 144,  75,   8)
       Total Heat Release Rate:              6.414 kW
       Radiation Loss to Boundaries:        -0.166 kW
 
       Time Step       8   October 12, 2022  11:49:54
       Step Size:    0.112E-01 s, Total Time:       0.09 s
       Pressure Iterations:      1
       Maximum Velocity Error:  0.41E-02 on Mesh   1 at ( 205  97   7)
       Maximum Pressure Error:  0.77E+04 on Mesh   1 at ( 191  92   6)
       ---------------------------------------------------------------
       Max CFL number:  0.24E+00 at ( 262, 118,   7)
       Max divergence:  0.16E+02 at (  86,  52,   6)
       Min divergence: -0.14E-05 at (   7, 157,  10)
       Max VN number:   0.59E-01 at ( 144,  75,   8)
       Total Heat Release Rate:              7.976 kW
       Radiation Loss to Boundaries:        -0.297 kW
 
       Time Step       9   October 12, 2022  11:52:29
       Step Size:    0.112E-01 s, Total Time:       0.10 s
       Pressure Iterations:      2
       Maximum Velocity Error:  0.32E-02 on Mesh   1 at (  86  52   5)
       Maximum Pressure Error:  0.80E+04 on Mesh   1 at ( 191  92   6)
       ---------------------------------------------------------------
       Max CFL number:  0.29E+00 at ( 262, 118,   7)
       Max divergence:  0.17E+02 at (  86,  52,   6)
       Min divergence: -0.14E-05 at (   7, 157,  10)
       Max VN number:   0.75E-01 at ( 144,  75,   8)
       Total Heat Release Rate:              9.539 kW
       Radiation Loss to Boundaries:        -0.566 kW
 
       Time Step      10   October 12, 2022  11:54:55
       Step Size:    0.112E-01 s, Total Time:       0.11 s
       Pressure Iterations:      2
       Maximum Velocity Error:  0.47E-02 on Mesh   1 at (  86  52   5)
       Maximum Pressure Error:  0.70E+04 on Mesh   1 at ( 191  92   6)
       ---------------------------------------------------------------
       Max CFL number:  0.34E+00 at (  86,  54,   7)
       Max divergence:  0.16E+02 at (  91,  50,   6)
       Min divergence: -0.13E-05 at (   7, 157,  10)
       Max VN number:   0.10E+00 at (  86,  54,   8)
       Total Heat Release Rate:             11.199 kW
       Radiation Loss to Boundaries:        -1.083 kW
 
       Time Step      20   October 12, 2022  12:21:56
       Step Size:    0.792E-02 s, Total Time:       0.22 s
       Pressure Iterations:      6
       Maximum Velocity Error:  0.40E-02 on Mesh   1 at ( 126  64   6)
       Maximum Pressure Error:  0.29E+05 on Mesh   1 at ( 163  82  10)
       ---------------------------------------------------------------
       Max CFL number:  0.92E+00 at ( 275, 119,   8)
       Max divergence:  0.47E+02 at ( 201,  90,   8)
       Min divergence: -0.24E+02 at ( 236, 103,   9)
       Max VN number:   0.57E+00 at ( 223,  98,   8)
       Total Heat Release Rate:             19.038 kW
       Radiation Loss to Boundaries:        -7.924 kW
 
       Time Step      30   October 12, 2022  12:48:49
       Step Size:    0.489E-02 s, Total Time:       0.28 s
       Pressure Iterations:      4
       Maximum Velocity Error:  0.28E-02 on Mesh   1 at ( 275 119   5)
       Maximum Pressure Error:  0.18E+05 on Mesh   1 at ( 195  88   6)
       ---------------------------------------------------------------
       Max CFL number:  0.89E+00 at ( 207,  98,   8)
       Max divergence:  0.52E+02 at ( 243, 111,   8)
       Min divergence: -0.18E+02 at ( 254, 115,  11)
       Max VN number:   0.37E+00 at ( 121,  61,   9)
       Total Heat Release Rate:             27.910 kW
       Radiation Loss to Boundaries:       -10.803 kW
 
       Time Step      40   October 12, 2022  13:17:53
       Step Size:    0.538E-02 s, Total Time:       0.33 s
       Pressure Iterations:      6
       Maximum Velocity Error:  0.47E-02 on Mesh   1 at ( 275 118   6)
       Maximum Pressure Error:  0.28E+05 on Mesh   1 at ( 121  61   6)
       ---------------------------------------------------------------
       Max CFL number:  0.96E+00 at ( 170,  79,   8)
       Max divergence:  0.54E+02 at ( 126,  63,   8)
       Min divergence: -0.16E+02 at ( 235, 108,  11)
       Max VN number:   0.38E+00 at ( 235, 108,   9)
       Total Heat Release Rate:             32.868 kW
       Radiation Loss to Boundaries:       -12.148 kW
 
       Time Step      50   October 12, 2022  13:45:24
       Step Size:    0.538E-02 s, Total Time:       0.38 s
       Pressure Iterations:      7
       Maximum Velocity Error:  0.34E-02 on Mesh   1 at ( 143  70   6)
       Maximum Pressure Error:  0.11E+05 on Mesh   1 at ( 274 121   6)
       ---------------------------------------------------------------
       Max CFL number:  0.99E+00 at ( 272, 116,  12)
       Max divergence:  0.50E+02 at (  87,  50,   8)
       Min divergence: -0.15E+02 at ( 274, 118,  11)
       Max VN number:   0.37E+00 at (  92,  56,   9)
       Total Heat Release Rate:             37.177 kW
       Radiation Loss to Boundaries:       -13.372 kW
 
       Time Step      60   October 12, 2022  14:08:30
       Step Size:    0.473E-02 s, Total Time:       0.43 s
       Pressure Iterations:      5
       Maximum Velocity Error:  0.43E-02 on Mesh   1 at ( 164  82   6)
       Maximum Pressure Error:  0.82E+04 on Mesh   1 at ( 166  83   8)
       ---------------------------------------------------------------
       Max CFL number:  0.93E+00 at (  97,  52,  15)
       Max divergence:  0.43E+02 at (  91,  50,   9)
       Min divergence: -0.15E+02 at ( 221, 103,  11)
       Max VN number:   0.37E+00 at ( 274, 118,  14)
       Total Heat Release Rate:             41.700 kW
       Radiation Loss to Boundaries:       -15.484 kW
 
       Time Step      70   October 12, 2022  14:34:11
       Step Size:    0.420E-02 s, Total Time:       0.48 s
       Pressure Iterations:      7
       Maximum Velocity Error:  0.41E-02 on Mesh   1 at ( 275 118   6)
       Maximum Pressure Error:  0.19E+05 on Mesh   1 at ( 172  85   8)
       ---------------------------------------------------------------
       Max CFL number:  0.88E+00 at ( 111,  57,  16)
       Max divergence:  0.64E+02 at ( 236, 103,   8)
       Min divergence: -0.18E+02 at ( 274, 118,  10)
       Max VN number:   0.40E+00 at ( 273, 118,  17)
       Total Heat Release Rate:             46.998 kW
       Radiation Loss to Boundaries:       -17.238 kW
 
       Time Step      80   October 12, 2022  15:01:25
       Step Size:    0.374E-02 s, Total Time:       0.52 s
       Pressure Iterations:      6
       Maximum Velocity Error:  0.40E-02 on Mesh   1 at ( 275 118   6)
       Maximum Pressure Error:  0.14E+05 on Mesh   1 at ( 131  70   8)
       ---------------------------------------------------------------
       Max CFL number:  0.93E+00 at ( 272, 119,  18)
       Max divergence:  0.63E+02 at ( 184,  84,   8)
       Min divergence: -0.16E+02 at ( 200,  90,  10)
       Max VN number:   0.35E+00 at (  88,  53,  20)
       Total Heat Release Rate:             52.497 kW
       Radiation Loss to Boundaries:       -19.771 kW
 
       Time Step      90   October 12, 2022  15:25:37
       Step Size:    0.330E-02 s, Total Time:       0.55 s
       Pressure Iterations:      5
       Maximum Velocity Error:  0.42E-02 on Mesh   1 at (  90  50   6)
       Maximum Pressure Error:  0.15E+05 on Mesh   1 at ( 210  99   8)
       ---------------------------------------------------------------
       Max CFL number:  0.90E+00 at ( 271, 118,  19)
       Max divergence:  0.98E+02 at ( 275, 119,   8)
       Min divergence: -0.21E+02 at ( 274, 118,  11)
       Max VN number:   0.28E+00 at ( 158,  80,   9)
       Total Heat Release Rate:             57.574 kW
       Radiation Loss to Boundaries:       -21.822 kW
 
       Time Step     100   October 12, 2022  15:50:57
       Step Size:    0.330E-02 s, Total Time:       0.58 s
       Pressure Iterations:      5
       Maximum Velocity Error:  0.39E-02 on Mesh   1 at ( 268 120   6)
       Maximum Pressure Error:  0.13E+05 on Mesh   1 at ( 241 105   8)
       ---------------------------------------------------------------
       Max CFL number:  0.97E+00 at ( 269, 119,  22)
       Max divergence:  0.13E+03 at (  86,  54,   8)
       Min divergence: -0.25E+02 at ( 154,  78,  10)
       Max VN number:   0.31E+00 at (  94,  57,   9)
       Total Heat Release Rate:             56.832 kW
       Radiation Loss to Boundaries:       -21.491 kW
 
       Time Step     200   October 12, 2022  20:06:20
       Step Size:    0.206E-02 s, Total Time:       0.83 s
       Pressure Iterations:      8
       Maximum Velocity Error:  0.42E-02 on Mesh   1 at ( 177  86   6)
       Maximum Pressure Error:  0.31E+05 on Mesh   1 at ( 247 107   6)
       ---------------------------------------------------------------
       Max CFL number:  0.95E+00 at ( 254, 112,  30)
       Max divergence:  0.11E+03 at ( 237, 109,   8)
       Min divergence: -0.22E+02 at ( 118,  60,   9)
       Max VN number:   0.26E+00 at ( 217, 101,  35)
       Total Heat Release Rate:             85.050 kW
       Radiation Loss to Boundaries:       -31.614 kW
 
