
 Fire Dynamics Simulator

 Current Date     : October  9, 2022  17:42:05
 Revision         : FDS6.7.7-0-gfe0d4ef38-release
 Revision Date    : Thu Nov 18 17:10:22 2021 -0500
 Compiler         : Intel ifort 2021.4.0
 Compilation Date : Fri 11/19/2021  08:57 AM

 MPI Enabled;    Number of MPI Processes:       1
 OpenMP Enabled; Number of OpenMP Threads:      4

 MPI version: 3.1
 MPI library version: Intel(R) MPI Library 2021.4 for Windows* OS


 Job TITLE        : This is an example case
 Job ID string    : fire_whirl_try4


 Grid Dimensions, Mesh     1

   Cells in the X Direction            30
   Cells in the Y Direction            30
   Cells in the Z Direction            30
   Number of Grid Cells             27000


 Physical Dimensions, Mesh     1

   Length (m)                       6.800
   Width  (m)                       1.700
   Height (m)                       2.000
   Initial Time Step (s)            0.106

Total Number of Grid Cells         27000


 Miscellaneous Parameters

   Simulation Start Time (s)          0.0
   Simulation End Time (s)           10.0
   LES Calculation
   Eddy Viscosity:           Deardorff Model (C_DEARDORFF = 0.10)
   Near-wall Eddy Viscosity: WALE Model (C_WALE = 0.60)
   Turbulent Prandtl Number:         0.50
   Turbulent Schmidt Number:         0.50
   Background Pressure (Pa):    101325.00
   Ambient Temperature (C):         20.00


 Background Stratification

      Z (m)     P_0 (Pa)    TMP_0 (C)
   ------------------------------------
        1.97    101301.94     20.00
        1.90    101302.73     20.00
        1.83    101303.51     20.00
        1.77    101304.29     20.00
        1.70    101305.07     20.00
        1.63    101305.85     20.00
        1.57    101306.63     20.00
        1.50    101307.41     20.00
        1.43    101308.20     20.00
        1.37    101308.98     20.00
        1.30    101309.76     20.00
        1.23    101310.54     20.00
        1.17    101311.32     20.00
        1.10    101312.10     20.00
        1.03    101312.89     20.00
        0.97    101313.66     20.00
        0.90    101314.45     20.00
        0.83    101315.23     20.00
        0.77    101316.01     20.00
        0.70    101316.79     20.00
        0.63    101317.57     20.00
        0.57    101318.35     20.00
        0.50    101319.13     20.00
        0.43    101319.92     20.00
        0.37    101320.70     20.00
        0.30    101321.48     20.00
        0.23    101322.26     20.00
        0.17    101323.04     20.00
        0.10    101323.82     20.00
        0.03    101324.61     20.00


 Mass Fraction Transformation Matrix to Convert Species Mixtures (Columns) to Primitive Species (Rows)

                         AIR       N-HEPTAN  PRODUCTS
   N-HEPTANE             0.000000  1.000000  0.000000
   NITROGEN              0.762470  0.000000  0.715424
   OXYGEN                0.230997  0.000000  0.000000
   CARBON DIOXIDE        0.000591  0.000000  0.190254
   WATER VAPOR           0.005941  0.000000  0.094321
   CARBON MONOXIDE       0.000000  0.000000  0.000000
   SOOT                  0.000000  0.000000  0.000000
   HYDROGEN              0.000000  0.000000  0.000000
   HYDROGEN CYANIDE      0.000000  0.000000  0.000000


 Primitive Species Information

   N-HEPTANE
   Gas Species
   Molecular Weight (g/mol)           100.20194
   Ambient Density (kg/m^3)            4.166
   Enthalpy of Formation (J/kg)       -1.87E+06

   NITROGEN
   Gas Species
   Molecular Weight (g/mol)            28.01340
   Ambient Density (kg/m^3)            1.165
   Enthalpy of Formation (J/kg)        0.00E+00

   OXYGEN
   Gas Species
   Molecular Weight (g/mol)            31.99880
   Ambient Density (kg/m^3)            1.330
   Enthalpy of Formation (J/kg)        0.00E+00

   CARBON DIOXIDE
   Gas Species
   Molecular Weight (g/mol)            44.00950
   Ambient Density (kg/m^3)            1.830
   Enthalpy of Formation (J/kg)       -8.94E+06

   WATER VAPOR
   Gas Species
   Molecular Weight (g/mol)            18.01528
   Ambient Density (kg/m^3)            0.749
   Enthalpy of Formation (J/kg)       -1.34E+07

   CARBON MONOXIDE
   Gas Species
   Molecular Weight (g/mol)            28.01010
   Ambient Density (kg/m^3)            1.164
   Enthalpy of Formation (J/kg)       -3.95E+06

   SOOT
   Gas Species
   Molecular Weight (g/mol)            10.91042
   Ambient Density (kg/m^3)            0.454
   Enthalpy of Formation (J/kg)        0.00E+00

   HYDROGEN
   Gas Species
   Molecular Weight (g/mol)             2.01588
   Ambient Density (kg/m^3)            0.084
   Enthalpy of Formation (J/kg)        0.00E+00

   HYDROGEN CYANIDE
   Gas Species
   Molecular Weight (g/mol)            27.02534
   Ambient Density (kg/m^3)            1.123
   Enthalpy of Formation (J/kg)        4.92E+06


 Tracked (Lumped) Species Information

   AIR
   Molecular Weight (g/mol)            28.75198
   Ambient Density (kg/m^3)            1.195
   Initial Mass Fraction               1.000
   Enthalpy of Formation (J/kg)     -8.50E+04

   Sub Species                    Mass Fraction     Mole Fraction
   NITROGEN                       7.624699E-01      7.825727E-01
   OXYGEN                         2.309974E-01      2.075588E-01
   CARBON DIOXIDE                 5.914650E-04      3.864118E-04
   WATER VAPOR                    5.941209E-03      9.482037E-03
 
     Viscosity (kg/m/s) Ambient,  293 K:  1.80E-05
                                  500 K:  2.61E-05
                                 1000 K:  4.13E-05
                                 1500 K:  5.37E-05
   Therm. Cond. (W/m/K) Ambient,  293 K:  2.56E-02
                                  500 K:  3.81E-02
                                 1000 K:  6.69E-02
                                 1500 K:  9.25E-02
        Enthalpy (J/kg) Ambient,  293 K: -9.01E+04
                                  500 K:  1.22E+05
                                 1000 K:  6.72E+05
                                 1500 K:  1.27E+06
    Spec. Heat (J/kg/K) Ambient,  293 K:  1.02E+03
                                  500 K:  1.04E+03
                                 1000 K:  1.16E+03
                                 1500 K:  1.23E+03
   Diff. Coeff. (m^2/s) Ambient,  293 K:  1.99E-05
                                  500 K:  4.96E-05
                                 1000 K:  1.58E-04
                                 1500 K:  3.09E-04

   N-HEPTANE
   Molecular Weight (g/mol)           100.20194
   Ambient Density (kg/m^3)            4.166
   Initial Mass Fraction               0.000
   Enthalpy of Formation (J/kg)     -1.87E+06

   Sub Species                    Mass Fraction     Mole Fraction
   N-HEPTANE                      1.000000E+00      1.000000E+00
 
     Viscosity (kg/m/s) Ambient,  293 K:  1.54E-05
                                  500 K:  2.45E-05
                                 1000 K:  4.11E-05
                                 1500 K:  5.41E-05
   Therm. Cond. (W/m/K) Ambient,  293 K:  3.02E-02
                                  500 K:  7.42E-02
                                 1000 K:  1.89E-01
                                 1500 K:  2.89E-01
        Enthalpy (J/kg) Ambient,  293 K: -1.88E+06
                                  500 K: -1.45E+06
                                 1000 K:  1.74E+05
                                 1500 K:  2.25E+06
    Spec. Heat (J/kg/K) Ambient,  293 K:  1.63E+03
                                  500 K:  2.52E+03
                                 1000 K:  3.81E+03
                                 1500 K:  4.43E+03
   Diff. Coeff. (m^2/s) Ambient,  293 K:  1.10E-05
                                  500 K:  2.83E-05
                                 1000 K:  9.18E-05
                                 1500 K:  1.80E-04

   PRODUCTS
   Molecular Weight (g/mol)            28.49222
   Ambient Density (kg/m^3)            1.184
   Initial Mass Fraction               0.000
   Enthalpy of Formation (J/kg)     -2.97E+06

   Sub Species                    Mass Fraction     Mole Fraction
   NITROGEN                       7.154242E-01      7.276525E-01
   CARBON DIOXIDE                 1.902544E-01      1.231727E-01
   WATER VAPOR                    9.432140E-02      1.491748E-01
   CARBON MONOXIDE                0.000000E+00      0.000000E+00
   SOOT                           0.000000E+00      0.000000E+00
   HYDROGEN CYANIDE               0.000000E+00      0.000000E+00
 
     Viscosity (kg/m/s) Ambient,  293 K:  1.62E-05
                                  500 K:  2.40E-05
                                 1000 K:  3.90E-05
                                 1500 K:  5.15E-05
   Therm. Cond. (W/m/K) Ambient,  293 K:  2.34E-02
                                  500 K:  3.62E-02
                                 1000 K:  6.69E-02
                                 1500 K:  9.57E-02
        Enthalpy (J/kg) Ambient,  293 K: -2.97E+06
                                  500 K: -2.74E+06
                                 1000 K: -2.14E+06
                                 1500 K: -1.47E+06
    Spec. Heat (J/kg/K) Ambient,  293 K:  1.08E+03
                                  500 K:  1.13E+03
                                 1000 K:  1.29E+03
                                 1500 K:  1.39E+03
   Diff. Coeff. (m^2/s) Ambient,  293 K:  1.94E-05
                                  500 K:  4.93E-05
                                 1000 K:  1.59E-04
                                 1500 K:  3.13E-04


 Gas Phase Reaction Information

   Fuel                                           Heat of Combustion (kJ/kg)
   N-HEPTANE                                                      44923.2620

   Stoichiometry

   Primitive Species Stoich. Coeff.
   Species ID                                                          Molar
   N-HEPTANE                                                       -1.000000
   OXYGEN                                                         -11.000000
   CARBON DIOXIDE                                                   7.000000
   WATER VAPOR                                                      8.000000

   Tracked (Lumped) Species Stoich. Coeff.
   Species ID                                             Molar         Mass
   AIR                                               -52.997025   -15.206987
   N-HEPTANE                                          -1.000000    -1.000000
   PRODUCTS                                           56.997025    16.206987

   Reaction Kinetics

   Arrhenius Parameters
   Pre-exponential:    Infinite
   Activation Energy:  N/A

   ODE Solver:  EXPLICIT EULER
   Extinction Model:  EXTINCTION 2
   Auto-Ignition Temperature (K):       0.0
   Critical Flame Temperature (K):   1770.2


 Material Information


 Surface Conditions

   0 INERT (DEFAULT)

   1 supply
     Normal Velocity (m/s)       -20.000
     AIR Mass Fraction         1.000

   2 line_burner_0
     HRR Per Unit Area (kW/m2)       2000.0
     N-HEPTANE Mass Flux (kg/s/m2)   4.45E-02

   3 line_burner_1
     HRR Per Unit Area (kW/m2)       2000.0
     N-HEPTANE Mass Flux (kg/s/m2)   4.45E-02

   4 line_burner_2
     HRR Per Unit Area (kW/m2)       2000.0
     N-HEPTANE Mass Flux (kg/s/m2)   4.45E-02

   5 line_burner_3
     HRR Per Unit Area (kW/m2)       2000.0
     N-HEPTANE Mass Flux (kg/s/m2)   4.45E-02

   6 line_burner_4
     HRR Per Unit Area (kW/m2)       2000.0
     N-HEPTANE Mass Flux (kg/s/m2)   4.45E-02

   7 line_burner_5
     HRR Per Unit Area (kW/m2)       2000.0
     N-HEPTANE Mass Flux (kg/s/m2)   4.45E-02

   8 sand_bed

   9 OPEN
     Passive Vent to Atmosphere

  10 MIRROR
     Symmetry Plane

  11 INTERPOLATED

  12 PERIODIC

  13 HVAC

  14 MASSLESS TRACER

  15 DROPLET

  16 EVACUATION_OUTFLOW
     Normal Velocity (m/s)         0.000

  17 MASSLESS TARGET

  18 PERIODIC FLOW ONLY


 Lagrangian Particle Classes


 Cut-off Density and Temperature

    Minimum Temperature:   -10.0 C
    Maximum Temperature:  2726.8 C
    Minimum Density:  1.195E-01 kg/m3
    Maximum Density:  9.281E+00 kg/m3


 Slice File Information, Mesh     1

   Sampling Interval (s)             0.010

   1 Nodes:   5   5   0  30   0  30, Quantity: TEMPERATURE


 Radiation Model Information

   Number of control angles  104
   Time step increment         3
   Angle increment             5
   Theta band N_phi   Solid angle
     1:        4     0.120
     2:       12     0.114
     3:       16     0.127
     4:       20     0.120
     5:       20     0.120
     6:       16     0.127
     7:       12     0.114
     8:        4     0.120
   Using gray gas absorption.
   Mean beam length  1.000E-01 m
 
 

 Run Time Diagnostics

       Time Step       1   October  9, 2022  17:42:05
       Step Size:    0.381E-01 s, Total Time:       0.04 s
       Pressure Iterations:      2
       Maximum Velocity Error:  0.21E-01 on Mesh   1 at (  16  18   1)
       Maximum Pressure Error:  0.12E-01 on Mesh   1 at (   1  27   1)
       ---------------------------------------------------------------
       Max CFL number:  0.33E+00 at (  30,  24,  10)
       Max divergence: -0.66E-01 at (  12,  20,   2)
       Min divergence: -0.80E-01 at (  10,  17,   2)
       Max VN number:   0.30E-01 at (   1,   2,  12)
 
       Time Step       2   October  9, 2022  17:42:06
       Step Size:    0.419E-01 s, Total Time:       0.08 s
       Pressure Iterations:      1
       Maximum Velocity Error:  0.42E-01 on Mesh   1 at (   7  13   2)
       Maximum Pressure Error:  0.23E+01 on Mesh   1 at (   7  14   2)
       ---------------------------------------------------------------
       Max CFL number:  0.74E+00 at (  30,  24,  10)
       Max divergence:  0.30E+01 at (   7,  14,   2)
       Min divergence: -0.16E+00 at (   9,  15,   2)
       Max VN number:   0.22E+00 at (  30,  24,  30)
 
       Time Step       3   October  9, 2022  17:42:06
       Step Size:    0.331E-01 s, Total Time:       0.11 s
       Pressure Iterations:      4
       Maximum Velocity Error:  0.27E-01 on Mesh   1 at (   7  13   2)
       Maximum Pressure Error:  0.11E+02 on Mesh   1 at (   7  12   3)
       ---------------------------------------------------------------
       Max CFL number:  0.81E+00 at (  30,  24,  10)
       Max divergence:  0.66E+01 at (   7,  11,   2)
       Min divergence: -0.21E+00 at (  30,  25,  30)
       Max VN number:   0.35E+00 at (  30,  24,  30)
 
       Time Step       4   October  9, 2022  17:42:06
       Step Size:    0.292E-01 s, Total Time:       0.14 s
       Pressure Iterations:      4
       Maximum Velocity Error:  0.37E-01 on Mesh   1 at (   7  12   2)
       Maximum Pressure Error:  0.39E+03 on Mesh   1 at (   7  11   2)
       ---------------------------------------------------------------
       Max CFL number:  0.88E+00 at (  30,  24,   2)
       Max divergence:  0.65E+01 at (   7,  14,   2)
       Min divergence: -0.26E+00 at (  30,  25,  30)
       Max VN number:   0.42E+00 at (  30,  24,  30)
 
       Time Step       5   October  9, 2022  17:42:06
       Step Size:    0.255E-01 s, Total Time:       0.17 s
       Pressure Iterations:      4
       Maximum Velocity Error:  0.31E-01 on Mesh   1 at (   7  13   2)
       Maximum Pressure Error:  0.49E+03 on Mesh   1 at (   7  14   2)
       ---------------------------------------------------------------
       Max CFL number:  0.88E+00 at (  30,  24,  29)
       Max divergence:  0.55E+01 at (   7,  11,   2)
       Min divergence: -0.31E+00 at (  30,  25,  30)
       Max VN number:   0.44E+00 at (  30,   7,   1)
 
       Time Step       6   October  9, 2022  17:42:06
       Step Size:    0.255E-01 s, Total Time:       0.19 s
       Pressure Iterations:      4
       Maximum Velocity Error:  0.30E-01 on Mesh   1 at (   5  11   2)
       Maximum Pressure Error:  0.14E+03 on Mesh   1 at (   5  11   3)
       ---------------------------------------------------------------
       Max CFL number:  0.99E+00 at (  30,  24,  29)
       Max divergence:  0.79E+01 at (   7,  14,   2)
       Min divergence: -0.35E+00 at (  30,   5,  30)
       Max VN number:   0.50E+00 at (  30,   7,   1)
 
       Time Step       7   October  9, 2022  17:42:06
       Step Size:    0.212E-01 s, Total Time:       0.21 s
       Pressure Iterations:      4
       Maximum Velocity Error:  0.28E-01 on Mesh   1 at (   5  11   2)
       Maximum Pressure Error:  0.10E+04 on Mesh   1 at (   7  14   2)
       ---------------------------------------------------------------
       Max CFL number:  0.89E+00 at (  30,   7,  29)
       Max divergence:  0.71E+01 at (   5,  11,   3)
       Min divergence: -0.39E+00 at (  30,   5,  30)
       Max VN number:   0.45E+00 at (  30,  24,   1)
 
       Time Step       8   October  9, 2022  17:42:06
       Step Size:    0.212E-01 s, Total Time:       0.24 s
       Pressure Iterations:      3
       Maximum Velocity Error:  0.37E-01 on Mesh   1 at (   5  11   2)
       Maximum Pressure Error:  0.43E+03 on Mesh   1 at (   5  11   3)
       ---------------------------------------------------------------
       Max CFL number:  0.95E+00 at (  30,   7,  29)
       Max divergence:  0.64E+01 at (   7,  14,   2)
       Min divergence: -0.43E+00 at (  30,   5,  30)
       Max VN number:   0.48E+00 at (  30,  24,   1)
 
       Time Step       9   October  9, 2022  17:42:07
       Step Size:    0.191E-01 s, Total Time:       0.25 s
       Pressure Iterations:      3
       Maximum Velocity Error:  0.28E-01 on Mesh   1 at (   7  13   2)
       Maximum Pressure Error:  0.72E+03 on Mesh   1 at (   7  14   2)
       ---------------------------------------------------------------
       Max CFL number:  0.89E+00 at (  30,   7,  29)
       Max divergence:  0.61E+01 at (   5,  11,   3)
       Min divergence: -0.48E+00 at (   7,  18,   2)
       Max VN number:   0.45E+00 at (  30,  24,   1)
 
       Time Step      10   October  9, 2022  17:42:07
       Step Size:    0.191E-01 s, Total Time:       0.27 s
       Pressure Iterations:      2
       Maximum Velocity Error:  0.43E-01 on Mesh   1 at (   8  15   2)
       Maximum Pressure Error:  0.56E+03 on Mesh   1 at (   5  11   3)
       ---------------------------------------------------------------
       Max CFL number:  0.94E+00 at (  30,   7,  29)
       Max divergence:  0.57E+01 at (   9,  18,   2)
       Min divergence: -0.53E+00 at (   7,  18,   2)
       Max VN number:   0.47E+00 at (  30,  24,   1)
 
       Time Step      20   October  9, 2022  17:42:08
       Step Size:    0.147E-01 s, Total Time:       0.43 s
       Pressure Iterations:      2
       Maximum Velocity Error:  0.29E-01 on Mesh   1 at (   8  15   2)
       Maximum Pressure Error:  0.26E+03 on Mesh   1 at (   7  13   3)
       ---------------------------------------------------------------
       Max CFL number:  0.10E+01 at (  30,   7,   2)
       Max divergence:  0.68E+01 at (  10,  19,   3)
       Min divergence: -0.10E+01 at (   8,  16,   2)
       Max VN number:   0.42E+00 at (  30,  24,   1)
 
       Time Step      30   October  9, 2022  17:42:09
       Step Size:    0.114E-01 s, Total Time:       0.56 s
       Pressure Iterations:      3
       Maximum Velocity Error:  0.31E-01 on Mesh   1 at (   7  13   2)
       Maximum Pressure Error:  0.10E+04 on Mesh   1 at (   7  14   2)
       ---------------------------------------------------------------
       Max CFL number:  0.94E+00 at (  30,   7,   2)
       Max divergence:  0.69E+01 at (  10,  18,   3)
       Min divergence: -0.14E+01 at (   9,  18,   3)
       Max VN number:   0.46E+00 at (  12,  20,   2)
 
       Time Step      40   October  9, 2022  17:42:10
       Step Size:    0.102E-01 s, Total Time:       0.66 s
       Pressure Iterations:      4
       Maximum Velocity Error:  0.30E-01 on Mesh   1 at (   8  15   2)
       Maximum Pressure Error:  0.15E+04 on Mesh   1 at (   8  16   2)
       ---------------------------------------------------------------
       Max CFL number:  0.95E+00 at (  30,   7,   2)
       Max divergence:  0.66E+01 at (  10,  18,   3)
       Min divergence: -0.23E+01 at (   8,  16,   2)
       Max VN number:   0.42E+00 at (  12,  20,   2)
 
       Time Step      50   October  9, 2022  17:42:11
       Step Size:    0.917E-02 s, Total Time:       0.76 s
       Pressure Iterations:      1
       Maximum Velocity Error:  0.44E-01 on Mesh   1 at (   8  17   1)
       Maximum Pressure Error:  0.46E+03 on Mesh   1 at (   9  18   2)
       ---------------------------------------------------------------
       Max CFL number:  0.94E+00 at (  30,  24,   2)
       Max divergence:  0.56E+01 at (  10,  18,   3)
       Min divergence: -0.25E+01 at (   4,  11,   7)
       Max VN number:   0.36E+00 at (  30,   7,   1)
 
       Time Step      60   October  9, 2022  17:42:12
       Step Size:    0.826E-02 s, Total Time:       0.85 s
       Pressure Iterations:      1
       Maximum Velocity Error:  0.18E-01 on Mesh   1 at (  10  19   2)
       Maximum Pressure Error:  0.14E+03 on Mesh   1 at (  22   1  30)
       ---------------------------------------------------------------
       Max CFL number:  0.90E+00 at (  30,   7,   2)
       Max divergence:  0.58E+01 at (   5,  11,   3)
       Min divergence: -0.29E+01 at (   8,  16,   2)
       Max VN number:   0.35E+00 at (  30,   7,   1)
 
       Time Step      70   October  9, 2022  17:42:13
       Step Size:    0.826E-02 s, Total Time:       0.93 s
       Pressure Iterations:      2
       Maximum Velocity Error:  0.46E-01 on Mesh   1 at (   7  13   2)
       Maximum Pressure Error:  0.32E+03 on Mesh   1 at (   7  15   2)
       ---------------------------------------------------------------
       Max CFL number:  0.96E+00 at (  30,   7,   2)
       Max divergence:  0.44E+01 at (   5,  11,   3)
       Min divergence: -0.30E+01 at (   8,  16,   2)
       Max VN number:   0.36E+00 at (  30,  24,   1)
 
       Time Step      80   October  9, 2022  17:42:14
       Step Size:    0.742E-02 s, Total Time:       1.01 s
       Pressure Iterations:      2
       Maximum Velocity Error:  0.28E-01 on Mesh   1 at (   7  13   2)
       Maximum Pressure Error:  0.25E+03 on Mesh   1 at (  24   1  30)
       ---------------------------------------------------------------
       Max CFL number:  0.90E+00 at (  30,   7,   2)
       Max divergence:  0.60E+01 at (   5,  11,   3)
       Min divergence: -0.28E+01 at (   8,  16,   2)
       Max VN number:   0.34E+00 at (  30,   7,   1)
 
       Time Step      90   October  9, 2022  17:42:15
       Step Size:    0.742E-02 s, Total Time:       1.09 s
       Pressure Iterations:      1
       Maximum Velocity Error:  0.30E-01 on Mesh   1 at (   7  13   2)
       Maximum Pressure Error:  0.21E+03 on Mesh   1 at (   8  14   2)
       ---------------------------------------------------------------
       Max CFL number:  0.93E+00 at (  30,  24,   2)
       Max divergence:  0.54E+01 at (   5,  11,   3)
       Min divergence: -0.28E+01 at (   5,  14,   5)
       Max VN number:   0.47E+00 at (  30,   2,  29)
 
       Time Step     100   October  9, 2022  17:42:15
       Step Size:    0.742E-02 s, Total Time:       1.16 s
       Pressure Iterations:      1
       Maximum Velocity Error:  0.15E-01 on Mesh   1 at (  10  19   2)
       Maximum Pressure Error:  0.20E+03 on Mesh   1 at (  20  30  30)
       ---------------------------------------------------------------
       Max CFL number:  0.95E+00 at (  30,  24,   5)
       Max divergence:  0.41E+01 at (   5,  11,   3)
       Min divergence: -0.24E+01 at (   7,  16,   2)
       Max VN number:   0.56E+00 at (  30,   2,  29)
 
       Time Step     157   October  9, 2022  17:42:21
       Step Size:    0.116E-04 s, Total Time:       1.47 s
       Pressure Iterations:      3
       Maximum Velocity Error:  0.37E-04 on Mesh   1 at (   8  15   2)
       Maximum Pressure Error:  0.94E+03 on Mesh   1 at (   5  11   2)
       ---------------------------------------------------------------
       Max CFL number:  0.18+309 at (  30,  24,   5)
       Max divergence:  0.22E+01 at (   9,  19,   3)
       Min divergence: -0.28E+01 at (   7,  17,   2)
       Poisson Pert. :  0.73E-08
       Max VN number:   0.12E-02 at (  30,   2,  29)
       No. of CLIP DT restrictions:   5
 


 Time Stepping Wall Clock Time (s):       16.245
 Total Elapsed Wall Clock Time (s):       19.727

ERROR: Numerical Instability - FDS stopped (CHID: fire_whirl_try4)
