
 Fire Dynamics Simulator

 Current Date     : October  3, 2022  18:22:16
 Revision         : FDS6.7.7-0-gfe0d4ef38-release
 Revision Date    : Thu Nov 18 17:10:22 2021 -0500
 Compiler         : Intel ifort 2021.4.0
 Compilation Date : Fri 11/19/2021  08:57 AM

 MPI Enabled;    Number of MPI Processes:       1
 OpenMP Enabled; Number of OpenMP Threads:      4

 MPI version: 3.1
 MPI library version: Intel(R) MPI Library 2021.4 for Windows* OS


 Job TITLE        : This is an example case
 Job ID string    : fire_whirls_try1


 Grid Dimensions, Mesh     1

   Cells in the X Direction            10
   Cells in the Y Direction            10
   Cells in the Z Direction            10
   Number of Grid Cells              1000


 Physical Dimensions, Mesh     1

   Length (m)                      13.704
   Width  (m)                      10.487
   Height (m)                       6.250
   Initial Time Step (s)            0.610

Total Number of Grid Cells          1000


 Miscellaneous Parameters

   Simulation Start Time (s)          0.0
   Simulation End Time (s)           10.0
   LES Calculation
   Eddy Viscosity:           Deardorff Model (C_DEARDORFF = 0.10)
   Near-wall Eddy Viscosity: WALE Model (C_WALE = 0.60)
   Turbulent Prandtl Number:         0.50
   Turbulent Schmidt Number:         0.50
   Background Pressure (Pa):    101325.00
   Ambient Temperature (C):         20.00


 Background Stratification

      Z (m)     P_0 (Pa)    TMP_0 (C)
   ------------------------------------
        5.94    101255.41     20.00
        5.31    101262.73     20.00
        4.69    101270.06     20.00
        4.06    101277.38     20.00
        3.44    101284.70     20.00
        2.81    101292.02     20.00
        2.19    101299.35     20.00
        1.56    101306.67     20.00
        0.94    101314.00     20.00
        0.31    101321.32     20.00


 Mass Fraction Transformation Matrix to Convert Species Mixtures (Columns) to Primitive Species (Rows)

                         AIR       Example   PRODUCTS
   Example               0.000000  1.000000  0.000000
   NITROGEN              0.762470  0.000000  0.666445
   OXYGEN                0.230997  0.000000  0.000000
   CARBON DIOXIDE        0.000591  0.000000  0.212231
   WATER VAPOR           0.005941  0.000000  0.107471
   CARBON MONOXIDE       0.000000  0.000000  0.005038
   SOOT                  0.000000  0.000000  0.008816
   HYDROGEN              0.000000  0.000000  0.000000
   HYDROGEN CYANIDE      0.000000  0.000000  0.000000


 Primitive Species Information

   Example
   Gas Species
   Molecular Weight (g/mol)            22.02628
   Ambient Density (kg/m^3)            0.916
   Enthalpy of Formation (J/kg)       -6.09E+06

   NITROGEN
   Gas Species
   Molecular Weight (g/mol)            28.01340
   Ambient Density (kg/m^3)            1.165
   Enthalpy of Formation (J/kg)        0.00E+00

   OXYGEN
   Gas Species
   Molecular Weight (g/mol)            31.99880
   Ambient Density (kg/m^3)            1.330
   Enthalpy of Formation (J/kg)        0.00E+00

   CARBON DIOXIDE
   Gas Species
   Molecular Weight (g/mol)            44.00950
   Ambient Density (kg/m^3)            1.830
   Enthalpy of Formation (J/kg)       -8.94E+06

   WATER VAPOR
   Gas Species
   Molecular Weight (g/mol)            18.01528
   Ambient Density (kg/m^3)            0.749
   Enthalpy of Formation (J/kg)       -1.34E+07

   CARBON MONOXIDE
   Gas Species
   Molecular Weight (g/mol)            28.01010
   Ambient Density (kg/m^3)            1.164
   Enthalpy of Formation (J/kg)       -3.95E+06

   SOOT
   Gas Species
   Molecular Weight (g/mol)            10.91042
   Ambient Density (kg/m^3)            0.454
   Enthalpy of Formation (J/kg)        0.00E+00

   HYDROGEN
   Gas Species
   Molecular Weight (g/mol)             2.01588
   Ambient Density (kg/m^3)            0.084
   Enthalpy of Formation (J/kg)        0.00E+00

   HYDROGEN CYANIDE
   Gas Species
   Molecular Weight (g/mol)            27.02534
   Ambient Density (kg/m^3)            1.123
   Enthalpy of Formation (J/kg)        4.92E+06


 Tracked (Lumped) Species Information

   AIR
   Molecular Weight (g/mol)            28.75198
   Ambient Density (kg/m^3)            1.195
   Initial Mass Fraction               1.000
   Enthalpy of Formation (J/kg)     -8.50E+04

   Sub Species                    Mass Fraction     Mole Fraction
   NITROGEN                       7.624699E-01      7.825727E-01
   OXYGEN                         2.309974E-01      2.075588E-01
   CARBON DIOXIDE                 5.914650E-04      3.864118E-04
   WATER VAPOR                    5.941209E-03      9.482037E-03
 
     Viscosity (kg/m/s) Ambient,  293 K:  1.80E-05
                                  500 K:  2.61E-05
                                 1000 K:  4.13E-05
                                 1500 K:  5.37E-05
   Therm. Cond. (W/m/K) Ambient,  293 K:  2.56E-02
                                  500 K:  3.81E-02
                                 1000 K:  6.69E-02
                                 1500 K:  9.25E-02
        Enthalpy (J/kg) Ambient,  293 K: -9.01E+04
                                  500 K:  1.22E+05
                                 1000 K:  6.72E+05
                                 1500 K:  1.27E+06
    Spec. Heat (J/kg/K) Ambient,  293 K:  1.02E+03
                                  500 K:  1.04E+03
                                 1000 K:  1.16E+03
                                 1500 K:  1.23E+03
   Diff. Coeff. (m^2/s) Ambient,  293 K:  1.99E-05
                                  500 K:  4.96E-05
                                 1000 K:  1.58E-04
                                 1500 K:  3.09E-04

   Example
   Molecular Weight (g/mol)            22.02628
   Ambient Density (kg/m^3)            0.916
   Initial Mass Fraction               0.000
   Enthalpy of Formation (J/kg)     -6.09E+06

   Sub Species                    Mass Fraction     Mole Fraction
   Example                        1.000000E+00      1.000000E+00
 
     Viscosity (kg/m/s) Ambient,  293 K:  1.54E-05
                                  500 K:  2.23E-05
                                 1000 K:  3.50E-05
                                 1500 K:  4.55E-05
   Therm. Cond. (W/m/K) Ambient,  293 K:  2.87E-02
                                  500 K:  4.14E-02
                                 1000 K:  6.51E-02
                                 1500 K:  8.48E-02
        Enthalpy (J/kg) Ambient,  293 K: -6.10E+06
                                  500 K: -5.82E+06
                                 1000 K: -5.16E+06
                                 1500 K: -4.50E+06
    Spec. Heat (J/kg/K) Ambient,  293 K:  1.32E+03
                                  500 K:  1.32E+03
                                 1000 K:  1.32E+03
                                 1500 K:  1.32E+03
   Diff. Coeff. (m^2/s) Ambient,  293 K:  2.12E-05
                                  500 K:  5.26E-05
                                 1000 K:  1.67E-04
                                 1500 K:  3.27E-04

   PRODUCTS
   Molecular Weight (g/mol)            28.11673
   Ambient Density (kg/m^3)            1.169
   Initial Mass Fraction               0.000
   Enthalpy of Formation (J/kg)     -3.36E+06

   Sub Species                    Mass Fraction     Mole Fraction
   NITROGEN                       6.664447E-01      6.689029E-01
   CARBON DIOXIDE                 2.122308E-01      1.355897E-01
   WATER VAPOR                    1.074711E-01      1.677319E-01
   CARBON MONOXIDE                5.037587E-03      5.056764E-03
   SOOT                           8.815777E-03      2.271872E-02
   HYDROGEN CYANIDE               0.000000E+00      0.000000E+00
 
     Viscosity (kg/m/s) Ambient,  293 K:  1.59E-05
                                  500 K:  2.37E-05
                                 1000 K:  3.87E-05
                                 1500 K:  5.12E-05
   Therm. Cond. (W/m/K) Ambient,  293 K:  2.30E-02
                                  500 K:  3.60E-02
                                 1000 K:  6.75E-02
                                 1500 K:  9.70E-02
        Enthalpy (J/kg) Ambient,  293 K: -3.37E+06
                                  500 K: -3.14E+06
                                 1000 K: -2.52E+06
                                 1500 K: -1.84E+06
    Spec. Heat (J/kg/K) Ambient,  293 K:  1.08E+03
                                  500 K:  1.15E+03
                                 1000 K:  1.31E+03
                                 1500 K:  1.42E+03
   Diff. Coeff. (m^2/s) Ambient,  293 K:  1.96E-05
                                  500 K:  4.97E-05
                                 1000 K:  1.61E-04
                                 1500 K:  3.16E-04


 Gas Phase Reaction Information

   Fuel                                           Heat of Combustion (kJ/kg)
   Example                                                        20000.0000

   Stoichiometry

   Primitive Species Stoich. Coeff.
   Species ID                                                          Molar
   Example                                                         -1.000000
   OXYGEN                                                          -1.103553
   CARBON DIOXIDE                                                   0.841359
   WATER VAPOR                                                      0.992934
   CARBON MONOXIDE                                                  0.031455
   SOOT                                                             0.141318

   Tracked (Lumped) Species Stoich. Coeff.
   Species ID                                             Molar         Mass
   AIR                                                -5.316823    -6.940309
   Example                                            -1.000000    -1.000000
   PRODUCTS                                            6.220335     7.940309

   Reaction Kinetics

   Arrhenius Parameters
   Pre-exponential:    Infinite
   Activation Energy:  N/A

   ODE Solver:  EXPLICIT EULER
   Extinction Model:  EXTINCTION 2
   Auto-Ignition Temperature (K):       0.0
   Critical Flame Temperature (K):   1700.2


 Material Information


 Surface Conditions

   0 INERT (DEFAULT)

   1 Burner bc
     HRR Per Unit Area (kW/m2)        500.0
     Example Mass Flux (kg/s/m2)   2.50E-02

   2 OPEN
     Passive Vent to Atmosphere

   3 MIRROR
     Symmetry Plane

   4 INTERPOLATED

   5 PERIODIC

   6 HVAC

   7 MASSLESS TRACER

   8 DROPLET

   9 EVACUATION_OUTFLOW
     Normal Velocity (m/s)         0.000

  10 MASSLESS TARGET

  11 PERIODIC FLOW ONLY


 Lagrangian Particle Classes


 Cut-off Density and Temperature

    Minimum Temperature:   -10.0 C
    Maximum Temperature:  2726.8 C
    Minimum Density:  1.195E-01 kg/m3
    Maximum Density:  2.663E+00 kg/m3


 Boundary File Information

   Sampling Interval (s)             0.020

   1 Quantity: WALL TEMPERATURE
   2 Quantity: BURNING RATE


 Radiation Model Information

   Number of control angles  104
   Time step increment         3
   Angle increment             5
   Theta band N_phi   Solid angle
     1:        4     0.120
     2:       12     0.114
     3:       16     0.127
     4:       20     0.120
     5:       20     0.120
     6:       16     0.127
     7:       12     0.114
     8:        4     0.120
   Using gray gas absorption.
   Mean beam length  1.000E-01 m
 
 

 Run Time Diagnostics

       Time Step       1   October  3, 2022  18:22:16
       Step Size:    0.610E+00 s, Total Time:       0.61 s
       Pressure Iterations:      1
       Maximum Velocity Error:  0.00E+00 on Mesh   1 at (   0   0   0)
       Maximum Pressure Error:  0.22E-07 on Mesh   1 at (   5   6   4)
       ---------------------------------------------------------------
       Max CFL number:  0.15E-01 at (   3,   9,   6)
       Max divergence:  0.11E-05 at (   8,   2,   2)
       Min divergence: -0.11E-05 at (   4,   5,   9)
       Max VN number:   0.17E-01 at (   1,   6,   6)
 
       Time Step       2   October  3, 2022  18:22:16
       Step Size:    0.610E+00 s, Total Time:       1.22 s
       Pressure Iterations:      1
       Maximum Velocity Error:  0.00E+00 on Mesh   1 at (   0   0   0)
       Maximum Pressure Error:  0.22E-09 on Mesh   1 at (   5   6   4)
       ---------------------------------------------------------------
       Max CFL number:  0.14E-01 at (   3,   9,   6)
       Max divergence:  0.11E-05 at (   8,   2,   2)
       Min divergence: -0.11E-05 at (   4,   5,   9)
       Max VN number:   0.17E-01 at (   1,   6,   6)
 
       Time Step       3   October  3, 2022  18:22:16
       Step Size:    0.610E+00 s, Total Time:       1.83 s
       Pressure Iterations:      1
       Maximum Velocity Error:  0.00E+00 on Mesh   1 at (   0   0   0)
       Maximum Pressure Error:  0.20E-09 on Mesh   1 at (   5   6   4)
       ---------------------------------------------------------------
       Max CFL number:  0.14E-01 at (   3,   9,   6)
       Max divergence:  0.11E-05 at (   8,   2,   2)
       Min divergence: -0.11E-05 at (   4,   5,   9)
       Max VN number:   0.17E-01 at (   1,   6,   6)
 
       Time Step       4   October  3, 2022  18:22:16
       Step Size:    0.610E+00 s, Total Time:       2.44 s
       Pressure Iterations:      1
       Maximum Velocity Error:  0.00E+00 on Mesh   1 at (   0   0   0)
       Maximum Pressure Error:  0.20E-09 on Mesh   1 at (   5   6   4)
       ---------------------------------------------------------------
       Max CFL number:  0.14E-01 at (   2,   3,   6)
       Max divergence:  0.11E-05 at (   8,   2,   2)
       Min divergence: -0.11E-05 at (   4,   5,   9)
       Max VN number:   0.17E-01 at (   1,   6,   6)
 
       Time Step       5   October  3, 2022  18:22:16
       Step Size:    0.610E+00 s, Total Time:       3.05 s
       Pressure Iterations:      1
       Maximum Velocity Error:  0.00E+00 on Mesh   1 at (   0   0   0)
       Maximum Pressure Error:  0.20E-09 on Mesh   1 at (   5   6   4)
       ---------------------------------------------------------------
       Max CFL number:  0.14E-01 at (   2,   3,   6)
       Max divergence:  0.11E-05 at (   8,   2,   2)
       Min divergence: -0.11E-05 at (   4,   5,   9)
       Max VN number:   0.16E-01 at (   1,   6,   6)
 
       Time Step       6   October  3, 2022  18:22:16
       Step Size:    0.610E+00 s, Total Time:       3.66 s
       Pressure Iterations:      1
       Maximum Velocity Error:  0.00E+00 on Mesh   1 at (   0   0   0)
       Maximum Pressure Error:  0.20E-09 on Mesh   1 at (   5   6   4)
       ---------------------------------------------------------------
       Max CFL number:  0.14E-01 at (   2,   3,   6)
       Max divergence:  0.11E-05 at (   8,   2,   2)
       Min divergence: -0.11E-05 at (   4,   5,   9)
       Max VN number:   0.16E-01 at (   1,   6,   6)
 
       Time Step       7   October  3, 2022  18:22:16
       Step Size:    0.610E+00 s, Total Time:       4.27 s
       Pressure Iterations:      1
       Maximum Velocity Error:  0.00E+00 on Mesh   1 at (   0   0   0)
       Maximum Pressure Error:  0.20E-09 on Mesh   1 at (   5   6   4)
       ---------------------------------------------------------------
       Max CFL number:  0.14E-01 at (   2,   3,   6)
       Max divergence:  0.11E-05 at (   8,   2,   2)
       Min divergence: -0.11E-05 at (   4,   5,   9)
       Max VN number:   0.16E-01 at (   1,   6,   6)
 
       Time Step       8   October  3, 2022  18:22:16
       Step Size:    0.610E+00 s, Total Time:       4.88 s
       Pressure Iterations:      1
       Maximum Velocity Error:  0.00E+00 on Mesh   1 at (   0   0   0)
       Maximum Pressure Error:  0.20E-09 on Mesh   1 at (   5   6   4)
       ---------------------------------------------------------------
       Max CFL number:  0.14E-01 at (   2,   3,   6)
       Max divergence:  0.11E-05 at (   8,   2,   2)
       Min divergence: -0.11E-05 at (   4,   5,   9)
       Max VN number:   0.16E-01 at (   1,   6,   6)
 
       Time Step       9   October  3, 2022  18:22:16
       Step Size:    0.610E+00 s, Total Time:       5.49 s
       Pressure Iterations:      1
       Maximum Velocity Error:  0.00E+00 on Mesh   1 at (   0   0   0)
       Maximum Pressure Error:  0.20E-09 on Mesh   1 at (   5   6   4)
       ---------------------------------------------------------------
       Max CFL number:  0.14E-01 at (   2,   3,   6)
       Max divergence:  0.11E-05 at (   8,   2,   2)
       Min divergence: -0.11E-05 at (   4,   5,   9)
       Max VN number:   0.16E-01 at (   1,   6,   6)
 
       Time Step      10   October  3, 2022  18:22:16
       Step Size:    0.610E+00 s, Total Time:       6.10 s
       Pressure Iterations:      1
       Maximum Velocity Error:  0.00E+00 on Mesh   1 at (   0   0   0)
       Maximum Pressure Error:  0.19E-09 on Mesh   1 at (   5   6   4)
       ---------------------------------------------------------------
       Max CFL number:  0.14E-01 at (   2,   3,   6)
       Max divergence:  0.11E-05 at (   8,   2,   2)
       Min divergence: -0.11E-05 at (   4,   5,   9)
       Max VN number:   0.16E-01 at (   1,   6,   6)
 
       Time Step      17   October  3, 2022  18:22:16
       Step Size:    0.236E+00 s, Total Time:      10.00 s
       Pressure Iterations:      1
       Maximum Velocity Error:  0.00E+00 on Mesh   1 at (   0   0   0)
       Maximum Pressure Error:  0.73E-10 on Mesh   1 at (   5   6   4)
       ---------------------------------------------------------------
       Max CFL number:  0.53E-02 at (   2,   3,   6)
       Max divergence:  0.11E-05 at (   8,   2,   2)
       Min divergence: -0.11E-05 at (   4,   5,   9)
       Max VN number:   0.63E-02 at (   1,   6,   6)
 


 Time Stepping Wall Clock Time (s):        0.088
 Total Elapsed Wall Clock Time (s):        1.546

STOP: FDS completed successfully (CHID: fire_whirls_try1)
