
 Fire Dynamics Simulator

 Current Date     : October  3, 2022  12:16:43
 Revision         : FDS6.7.7-0-gfe0d4ef38-release
 Revision Date    : Thu Nov 18 17:10:22 2021 -0500
 Compiler         : Intel ifort 2021.4.0
 Compilation Date : Fri 11/19/2021  08:57 AM

 MPI Enabled;    Number of MPI Processes:       1
 OpenMP Enabled; Number of OpenMP Threads:      4

 MPI version: 3.1
 MPI library version: Intel(R) MPI Library 2021.4 for Windows* OS


 Job TITLE        : FireWhirl1
 Job ID string    : FireWhirl1


 Grid Dimensions, Mesh     1

   Cells in the X Direction            81
   Cells in the Y Direction            17
   Cells in the Z Direction            30
   Number of Grid Cells             41310


 Physical Dimensions, Mesh     1

   Length (m)                       8.100
   Width  (m)                       1.700
   Height (m)                       3.000
   Initial Time Step (s)            0.091

Total Number of Grid Cells         41310


 Miscellaneous Parameters

   Simulation Start Time (s)          0.0
   Simulation End Time (s)           10.0
   LES Calculation
   Eddy Viscosity:           Deardorff Model (C_DEARDORFF = 0.10)
   Near-wall Eddy Viscosity: WALE Model (C_WALE = 0.60)
   Turbulent Prandtl Number:         0.50
   Turbulent Schmidt Number:         0.50
   Background Pressure (Pa):    101325.00
   Ambient Temperature (C):         20.00


 Background Stratification

      Z (m)     P_0 (Pa)    TMP_0 (C)
   ------------------------------------
        2.95    101290.42     20.00
        2.85    101291.59     20.00
        2.75    101292.77     20.00
        2.65    101293.93     20.00
        2.55    101295.11     20.00
        2.45    101296.28     20.00
        2.35    101297.45     20.00
        2.25    101298.62     20.00
        2.15    101299.80     20.00
        2.05    101300.96     20.00
        1.95    101302.14     20.00
        1.85    101303.31     20.00
        1.75    101304.48     20.00
        1.65    101305.65     20.00
        1.55    101306.83     20.00
        1.45    101308.00     20.00
        1.35    101309.17     20.00
        1.25    101310.34     20.00
        1.15    101311.51     20.00
        1.05    101312.69     20.00
        0.95    101313.86     20.00
        0.85    101315.03     20.00
        0.75    101316.20     20.00
        0.65    101317.38     20.00
        0.55    101318.54     20.00
        0.45    101319.72     20.00
        0.35    101320.89     20.00
        0.25    101322.06     20.00
        0.15    101323.23     20.00
        0.05    101324.41     20.00


 Mass Fraction Transformation Matrix to Convert Species Mixtures (Columns) to Primitive Species (Rows)

                         AIR       N-HEPTAN  PRODUCTS
   N-HEPTANE             0.000000  1.000000  0.000000
   NITROGEN              0.762470  0.000000  0.715424
   OXYGEN                0.230997  0.000000  0.000000
   CARBON DIOXIDE        0.000591  0.000000  0.190254
   WATER VAPOR           0.005941  0.000000  0.094321
   CARBON MONOXIDE       0.000000  0.000000  0.000000
   SOOT                  0.000000  0.000000  0.000000
   HYDROGEN              0.000000  0.000000  0.000000
   HYDROGEN CYANIDE      0.000000  0.000000  0.000000


 Primitive Species Information

   N-HEPTANE
   Gas Species
   Molecular Weight (g/mol)           100.20194
   Ambient Density (kg/m^3)            4.166
   Enthalpy of Formation (J/kg)       -1.87E+06

   NITROGEN
   Gas Species
   Molecular Weight (g/mol)            28.01340
   Ambient Density (kg/m^3)            1.165
   Enthalpy of Formation (J/kg)        0.00E+00

   OXYGEN
   Gas Species
   Molecular Weight (g/mol)            31.99880
   Ambient Density (kg/m^3)            1.330
   Enthalpy of Formation (J/kg)        0.00E+00

   CARBON DIOXIDE
   Gas Species
   Molecular Weight (g/mol)            44.00950
   Ambient Density (kg/m^3)            1.830
   Enthalpy of Formation (J/kg)       -8.94E+06

   WATER VAPOR
   Gas Species
   Molecular Weight (g/mol)            18.01528
   Ambient Density (kg/m^3)            0.749
   Enthalpy of Formation (J/kg)       -1.34E+07

   CARBON MONOXIDE
   Gas Species
   Molecular Weight (g/mol)            28.01010
   Ambient Density (kg/m^3)            1.164
   Enthalpy of Formation (J/kg)       -3.95E+06

   SOOT
   Gas Species
   Molecular Weight (g/mol)            10.91042
   Ambient Density (kg/m^3)            0.454
   Enthalpy of Formation (J/kg)        0.00E+00

   HYDROGEN
   Gas Species
   Molecular Weight (g/mol)             2.01588
   Ambient Density (kg/m^3)            0.084
   Enthalpy of Formation (J/kg)        0.00E+00

   HYDROGEN CYANIDE
   Gas Species
   Molecular Weight (g/mol)            27.02534
   Ambient Density (kg/m^3)            1.123
   Enthalpy of Formation (J/kg)        4.92E+06


 Tracked (Lumped) Species Information

   AIR
   Molecular Weight (g/mol)            28.75198
   Ambient Density (kg/m^3)            1.195
   Initial Mass Fraction               1.000
   Enthalpy of Formation (J/kg)     -8.50E+04

   Sub Species                    Mass Fraction     Mole Fraction
   NITROGEN                       7.624699E-01      7.825727E-01
   OXYGEN                         2.309974E-01      2.075588E-01
   CARBON DIOXIDE                 5.914650E-04      3.864118E-04
   WATER VAPOR                    5.941209E-03      9.482037E-03
 
     Viscosity (kg/m/s) Ambient,  293 K:  1.80E-05
                                  500 K:  2.61E-05
                                 1000 K:  4.13E-05
                                 1500 K:  5.37E-05
   Therm. Cond. (W/m/K) Ambient,  293 K:  2.56E-02
                                  500 K:  3.81E-02
                                 1000 K:  6.69E-02
                                 1500 K:  9.25E-02
        Enthalpy (J/kg) Ambient,  293 K: -9.01E+04
                                  500 K:  1.22E+05
                                 1000 K:  6.72E+05
                                 1500 K:  1.27E+06
    Spec. Heat (J/kg/K) Ambient,  293 K:  1.02E+03
                                  500 K:  1.04E+03
                                 1000 K:  1.16E+03
                                 1500 K:  1.23E+03
   Diff. Coeff. (m^2/s) Ambient,  293 K:  1.99E-05
                                  500 K:  4.96E-05
                                 1000 K:  1.58E-04
                                 1500 K:  3.09E-04

   N-HEPTANE
   Molecular Weight (g/mol)           100.20194
   Ambient Density (kg/m^3)            4.166
   Initial Mass Fraction               0.000
   Enthalpy of Formation (J/kg)     -1.87E+06

   Sub Species                    Mass Fraction     Mole Fraction
   N-HEPTANE                      1.000000E+00      1.000000E+00
 
     Viscosity (kg/m/s) Ambient,  293 K:  1.54E-05
                                  500 K:  2.45E-05
                                 1000 K:  4.11E-05
                                 1500 K:  5.41E-05
   Therm. Cond. (W/m/K) Ambient,  293 K:  3.02E-02
                                  500 K:  7.42E-02
                                 1000 K:  1.89E-01
                                 1500 K:  2.89E-01
        Enthalpy (J/kg) Ambient,  293 K: -1.88E+06
                                  500 K: -1.45E+06
                                 1000 K:  1.74E+05
                                 1500 K:  2.25E+06
    Spec. Heat (J/kg/K) Ambient,  293 K:  1.63E+03
                                  500 K:  2.52E+03
                                 1000 K:  3.81E+03
                                 1500 K:  4.43E+03
   Diff. Coeff. (m^2/s) Ambient,  293 K:  1.10E-05
                                  500 K:  2.83E-05
                                 1000 K:  9.18E-05
                                 1500 K:  1.80E-04

   PRODUCTS
   Molecular Weight (g/mol)            28.49222
   Ambient Density (kg/m^3)            1.184
   Initial Mass Fraction               0.000
   Enthalpy of Formation (J/kg)     -2.97E+06

   Sub Species                    Mass Fraction     Mole Fraction
   NITROGEN                       7.154242E-01      7.276525E-01
   CARBON DIOXIDE                 1.902544E-01      1.231727E-01
   WATER VAPOR                    9.432140E-02      1.491748E-01
   CARBON MONOXIDE                0.000000E+00      0.000000E+00
   SOOT                           0.000000E+00      0.000000E+00
   HYDROGEN CYANIDE               0.000000E+00      0.000000E+00
 
     Viscosity (kg/m/s) Ambient,  293 K:  1.62E-05
                                  500 K:  2.40E-05
                                 1000 K:  3.90E-05
                                 1500 K:  5.15E-05
   Therm. Cond. (W/m/K) Ambient,  293 K:  2.34E-02
                                  500 K:  3.62E-02
                                 1000 K:  6.69E-02
                                 1500 K:  9.57E-02
        Enthalpy (J/kg) Ambient,  293 K: -2.97E+06
                                  500 K: -2.74E+06
                                 1000 K: -2.14E+06
                                 1500 K: -1.47E+06
    Spec. Heat (J/kg/K) Ambient,  293 K:  1.08E+03
                                  500 K:  1.13E+03
                                 1000 K:  1.29E+03
                                 1500 K:  1.39E+03
   Diff. Coeff. (m^2/s) Ambient,  293 K:  1.94E-05
                                  500 K:  4.93E-05
                                 1000 K:  1.59E-04
                                 1500 K:  3.13E-04


 Gas Phase Reaction Information

   Fuel                                           Heat of Combustion (kJ/kg)
   N-HEPTANE                                                      44923.2620

   Stoichiometry

   Primitive Species Stoich. Coeff.
   Species ID                                                          Molar
   N-HEPTANE                                                       -1.000000
   OXYGEN                                                         -11.000000
   CARBON DIOXIDE                                                   7.000000
   WATER VAPOR                                                      8.000000

   Tracked (Lumped) Species Stoich. Coeff.
   Species ID                                             Molar         Mass
   AIR                                               -52.997025   -15.206987
   N-HEPTANE                                          -1.000000    -1.000000
   PRODUCTS                                           56.997025    16.206987

   Reaction Kinetics

   Arrhenius Parameters
   Pre-exponential:    Infinite
   Activation Energy:  N/A

   ODE Solver:  EXPLICIT EULER
   Extinction Model:  EXTINCTION 2
   Auto-Ignition Temperature (K):       0.0
   Critical Flame Temperature (K):   1770.2


 Material Information


 Surface Conditions

   0 INERT (DEFAULT)

   1 fire1
     HRR Per Unit Area (kW/m2)        250.0
     N-HEPTANE Mass Flux (kg/s/m2)   5.57E-03

   2 OPEN
     Passive Vent to Atmosphere

   3 MIRROR
     Symmetry Plane

   4 INTERPOLATED

   5 PERIODIC

   6 HVAC

   7 MASSLESS TRACER

   8 DROPLET

   9 EVACUATION_OUTFLOW
     Normal Velocity (m/s)         0.000

  10 MASSLESS TARGET

  11 PERIODIC FLOW ONLY


 Lagrangian Particle Classes


 Cut-off Density and Temperature

    Minimum Temperature:   -10.0 C
    Maximum Temperature:  2726.8 C
    Minimum Density:  1.195E-01 kg/m3
    Maximum Density:  9.281E+00 kg/m3


 Radiation Model Information

   Number of control angles  104
   Time step increment         3
   Angle increment             5
   Theta band N_phi   Solid angle
     1:        4     0.120
     2:       12     0.114
     3:       16     0.127
     4:       20     0.120
     5:       20     0.120
     6:       16     0.127
     7:       12     0.114
     8:        4     0.120
   Using gray gas absorption.
   Mean beam length  1.000E-01 m
 
 

 Run Time Diagnostics

       Time Step       1   October  3, 2022  12:16:43
       Step Size:    0.913E-01 s, Total Time:       0.09 s
       Pressure Iterations:      1
       Maximum Velocity Error:  0.15E-02 on Mesh   1 at (  11  16   5)
       Maximum Pressure Error:  0.26E-05 on Mesh   1 at (  15  15   4)
       ---------------------------------------------------------------
       Max CFL number:  0.23E-01 at (  55,   5,  22)
       Max divergence: -0.73E-06 at (  74,  13,   2)
       Min divergence: -0.29E-02 at (  13,  15,   5)
       Max VN number:   0.28E-01 at (  11,  17,   7)
 
       Time Step       2   October  3, 2022  12:16:43
       Step Size:    0.913E-01 s, Total Time:       0.18 s
       Pressure Iterations:      1
       Maximum Velocity Error:  0.12E-01 on Mesh   1 at (  20  16   5)
       Maximum Pressure Error:  0.10E+00 on Mesh   1 at (  11  16   6)
       ---------------------------------------------------------------
       Max CFL number:  0.23E-01 at (  55,   5,  22)
       Max divergence:  0.56E+00 at (  19,  15,   2)
       Min divergence: -0.10E-02 at (  26,   6,  29)
       Max VN number:   0.29E-01 at (  11,  17,   7)
 
       Time Step       3   October  3, 2022  12:16:43
       Step Size:    0.913E-01 s, Total Time:       0.27 s
       Pressure Iterations:      2
       Maximum Velocity Error:  0.24E-01 on Mesh   1 at (  20  16   1)
       Maximum Pressure Error:  0.85E+01 on Mesh   1 at (  21  17   1)
       ---------------------------------------------------------------
       Max CFL number:  0.92E-01 at (  21,  16,   3)
       Max divergence:  0.27E+01 at (  21,  16,   4)
       Min divergence: -0.23E-02 at (  70,  13,  29)
       Max VN number:   0.27E-01 at (  46,   1,  15)
 
       Time Step       4   October  3, 2022  12:16:44
       Step Size:    0.913E-01 s, Total Time:       0.37 s
       Pressure Iterations:      3
       Maximum Velocity Error:  0.44E-01 on Mesh   1 at (  20  17   1)
       Maximum Pressure Error:  0.40E+02 on Mesh   1 at (  16  15   1)
       ---------------------------------------------------------------
       Max CFL number:  0.42E+00 at (  21,  16,   4)
       Max divergence:  0.54E+01 at (  17,  15,   1)
       Min divergence: -0.41E-02 at (  53,  17,  29)
       Max VN number:   0.64E-01 at (  21,  16,   1)
 
       Time Step       5   October  3, 2022  12:16:44
       Step Size:    0.913E-01 s, Total Time:       0.46 s
       Pressure Iterations:      4
       Maximum Velocity Error:  0.31E-01 on Mesh   1 at (  20  17   1)
       Maximum Pressure Error:  0.64E+03 on Mesh   1 at (  17  15   1)
       ---------------------------------------------------------------
       Max CFL number:  0.70E+00 at (  17,  15,   1)
       Max divergence:  0.56E+01 at (  21,  17,   1)
       Min divergence: -0.42E-02 at (  81,  17,  30)
       Max VN number:   0.17E+00 at (  17,  15,   1)
 
       Time Step       6   October  3, 2022  12:16:44
       Step Size:    0.913E-01 s, Total Time:       0.55 s
       Pressure Iterations:      4
       Maximum Velocity Error:  0.30E-01 on Mesh   1 at (  20  17   1)
       Maximum Pressure Error:  0.74E+03 on Mesh   1 at (  21  17   1)
       ---------------------------------------------------------------
       Max CFL number:  0.93E+00 at (  21,  16,   3)
       Max divergence:  0.30E+01 at (  18,  15,   2)
       Min divergence: -0.48E+00 at (  21,  17,   2)
       Max VN number:   0.21E+00 at (  21,  17,   2)
 
       Time Step       7   October  3, 2022  12:16:44
       Step Size:    0.640E-01 s, Total Time:       0.61 s
       Pressure Iterations:      3
       Maximum Velocity Error:  0.46E-01 on Mesh   1 at (  20  17   1)
       Maximum Pressure Error:  0.20E+03 on Mesh   1 at (  14  15   1)
       ---------------------------------------------------------------
       Max CFL number:  0.80E+00 at (  21,  16,   5)
       Max divergence:  0.25E+01 at (  10,  16,   3)
       Min divergence: -0.43E+00 at (  20,  15,   2)
       Max VN number:   0.51E+00 at (  22,  17,   2)
 
       Time Step       8   October  3, 2022  12:16:44
       Step Size:    0.549E-01 s, Total Time:       0.67 s
       Pressure Iterations:      3
       Maximum Velocity Error:  0.33E-01 on Mesh   1 at (  15  17   5)
       Maximum Pressure Error:  0.14E+03 on Mesh   1 at (  14  15   1)
       ---------------------------------------------------------------
       Max CFL number:  0.87E+00 at (  21,  16,   4)
       Max divergence:  0.49E+01 at (  20,  15,   3)
       Min divergence: -0.12E+01 at (  21,  17,   3)
       Max VN number:   0.41E+00 at (  22,  17,   2)
 
       Time Step       9   October  3, 2022  12:16:44
       Step Size:    0.451E-01 s, Total Time:       0.71 s
       Pressure Iterations:      3
       Maximum Velocity Error:  0.38E-01 on Mesh   1 at (  11  16   2)
       Maximum Pressure Error:  0.25E+03 on Mesh   1 at (  21  17   4)
       ---------------------------------------------------------------
       Max CFL number:  0.88E+00 at (  20,  15,   3)
       Max divergence:  0.38E+01 at (  21,  16,   4)
       Min divergence: -0.54E+00 at (  20,  15,   4)
       Max VN number:   0.26E+00 at (   9,  17,   2)
 
       Time Step      10   October  3, 2022  12:16:44
       Step Size:    0.451E-01 s, Total Time:       0.76 s
       Pressure Iterations:      3
       Maximum Velocity Error:  0.38E-01 on Mesh   1 at (  11  16   3)
       Maximum Pressure Error:  0.27E+03 on Mesh   1 at (  10  17   4)
       ---------------------------------------------------------------
       Max CFL number:  0.98E+00 at (  21,  16,   5)
       Max divergence:  0.51E+01 at (  11,  15,   4)
       Min divergence: -0.15E+01 at (  21,  17,   5)
       Max VN number:   0.38E+00 at (   9,  17,   2)
 
       Time Step      20   October  3, 2022  12:16:45
       Step Size:    0.214E-01 s, Total Time:       1.04 s
       Pressure Iterations:      2
       Maximum Velocity Error:  0.27E-01 on Mesh   1 at (  15  16   5)
       Maximum Pressure Error:  0.34E+03 on Mesh   1 at (  15  17   6)
       ---------------------------------------------------------------
       Max CFL number:  0.89E+00 at (  21,  17,   8)
       Max divergence:  0.43E+01 at (  16,  15,   6)
       Min divergence: -0.11E+01 at (  20,  15,  11)
       Max VN number:   0.37E+00 at (  23,  17,   8)
 
       Time Step      30   October  3, 2022  12:16:46
       Step Size:    0.187E-01 s, Total Time:       1.24 s
       Pressure Iterations:      2
       Maximum Velocity Error:  0.20E-01 on Mesh   1 at (  12  17   5)
       Maximum Pressure Error:  0.34E+03 on Mesh   1 at (  12  17   6)
       ---------------------------------------------------------------
       Max CFL number:  0.88E+00 at (  15,  15,  12)
       Max divergence:  0.41E+01 at (  14,  15,   6)
       Min divergence: -0.17E+01 at (  17,  15,  13)
       Max VN number:   0.45E+00 at (  22,  17,   8)
 
       Time Step      40   October  3, 2022  12:16:47
       Step Size:    0.167E-01 s, Total Time:       1.42 s
       Pressure Iterations:      2
       Maximum Velocity Error:  0.15E-01 on Mesh   1 at (  12  17   5)
       Maximum Pressure Error:  0.35E+03 on Mesh   1 at (  12  17   6)
       ---------------------------------------------------------------
       Max CFL number:  0.89E+00 at (  15,  15,  13)
       Max divergence:  0.39E+01 at (  14,  15,   6)
       Min divergence: -0.13E+01 at (  16,  15,  16)
       Max VN number:   0.79E+00 at (   9,  17,  10)
 
       Time Step      50   October  3, 2022  12:16:48
       Step Size:    0.167E-01 s, Total Time:       1.59 s
       Pressure Iterations:      2
       Maximum Velocity Error:  0.30E-01 on Mesh   1 at (  16  17   5)
       Maximum Pressure Error:  0.68E+03 on Mesh   1 at (  16  17   6)
       ---------------------------------------------------------------
       Max CFL number:  0.96E+00 at (  15,  16,  15)
       Max divergence:  0.39E+01 at (  19,  15,   6)
       Min divergence: -0.14E+01 at (  12,  17,  11)
       Max VN number:   0.56E+00 at (   9,  17,  12)
 
       Time Step      60   October  3, 2022  12:16:49
       Step Size:    0.142E-01 s, Total Time:       1.75 s
       Pressure Iterations:      2
       Maximum Velocity Error:  0.26E-01 on Mesh   1 at (  16  17   5)
       Maximum Pressure Error:  0.71E+03 on Mesh   1 at (  16  17   6)
       ---------------------------------------------------------------
       Max CFL number:  0.92E+00 at (  12,  17,  15)
       Max divergence:  0.41E+01 at (  13,  15,   6)
       Min divergence: -0.16E+01 at (  11,  17,  16)
       Max VN number:   0.46E+00 at (  23,  17,  15)
 
       Time Step      70   October  3, 2022  12:16:50
       Step Size:    0.127E-01 s, Total Time:       1.89 s
       Pressure Iterations:      2
       Maximum Velocity Error:  0.29E-01 on Mesh   1 at (  16  17   5)
       Maximum Pressure Error:  0.67E+03 on Mesh   1 at (  16  17   6)
       ---------------------------------------------------------------
       Max CFL number:  0.88E+00 at (  18,  17,  18)
       Max divergence:  0.41E+01 at (  15,  15,   6)
       Min divergence: -0.16E+01 at (  13,  17,   8)
       Max VN number:   0.45E+00 at (  10,  17,  21)
 
       Time Step      80   October  3, 2022  12:16:51
       Step Size:    0.127E-01 s, Total Time:       2.01 s
       Pressure Iterations:      2
       Maximum Velocity Error:  0.12E-01 on Mesh   1 at (  16  17   5)
       Maximum Pressure Error:  0.39E+03 on Mesh   1 at (  18  17  22)
       ---------------------------------------------------------------
       Max CFL number:  0.84E+00 at (  18,  17,  22)
       Max divergence:  0.44E+01 at (  12,  15,   6)
       Min divergence: -0.18E+01 at (  13,  17,   8)
       Max VN number:   0.63E+00 at (  10,  17,  23)
 
       Time Step      90   October  3, 2022  12:16:52
       Step Size:    0.140E-01 s, Total Time:       2.14 s
       Pressure Iterations:      1
       Maximum Velocity Error:  0.17E-01 on Mesh   1 at (  20  16   5)
       Maximum Pressure Error:  0.47E+03 on Mesh   1 at (  14  17  18)
       ---------------------------------------------------------------
       Max CFL number:  0.91E+00 at (  20,  17,  23)
       Max divergence:  0.48E+01 at (  13,  15,   6)
       Min divergence: -0.19E+01 at (  13,  17,   9)
       Max VN number:   0.60E+00 at (  18,  17,  22)
 
       Time Step     100   October  3, 2022  12:16:53
       Step Size:    0.122E-01 s, Total Time:       2.27 s
       Pressure Iterations:      1
       Maximum Velocity Error:  0.22E-01 on Mesh   1 at (  13  17   5)
       Maximum Pressure Error:  0.37E+03 on Mesh   1 at (  13  17   7)
       ---------------------------------------------------------------
       Max CFL number:  0.84E+00 at (  14,  17,  20)
       Max divergence:  0.43E+01 at (  19,  15,   6)
       Min divergence: -0.19E+01 at (  18,  17,   9)
       Max VN number:   0.59E+00 at (   9,  17,  26)
 
       Time Step     200   October  3, 2022  12:17:03
       Step Size:    0.128E-01 s, Total Time:       3.53 s
       Pressure Iterations:      1
       Maximum Velocity Error:  0.37E-01 on Mesh   1 at (  13  17   5)
       Maximum Pressure Error:  0.45E+03 on Mesh   1 at (  18  17  21)
       ---------------------------------------------------------------
       Max CFL number:  0.96E+00 at (  15,  17,  25)
       Max divergence:  0.46E+01 at (  16,  15,   6)
       Min divergence: -0.21E+01 at (  17,  17,   8)
       Max VN number:   0.93E+00 at (   2,  17,  29)
 
       Time Step     300   October  3, 2022  12:17:13
       Step Size:    0.129E-01 s, Total Time:       4.70 s
       Pressure Iterations:      1
       Maximum Velocity Error:  0.41E-01 on Mesh   1 at (  19  17   5)
       Maximum Pressure Error:  0.30E+03 on Mesh   1 at (  16  17  24)
       ---------------------------------------------------------------
       Max CFL number:  0.91E+00 at (  16,  17,  26)
       Max divergence:  0.53E+01 at (  13,  15,   6)
       Min divergence: -0.19E+01 at (  12,  16,   9)
       Max VN number:   0.59E+00 at (  14,   3,  30)
 
       Time Step     400   October  3, 2022  12:17:23
       Step Size:    0.131E-01 s, Total Time:       5.95 s
       Pressure Iterations:      2
       Maximum Velocity Error:  0.17E-01 on Mesh   1 at (  12  17   5)
       Maximum Pressure Error:  0.66E+03 on Mesh   1 at (  12  17   6)
       ---------------------------------------------------------------
       Max CFL number:  0.88E+00 at (  14,  16,  21)
       Max divergence:  0.59E+01 at (  11,  15,   5)
       Min divergence: -0.20E+01 at (  17,  17,   8)
       Max VN number:   0.68E+00 at (   2,  17,  29)
 
       Time Step     500   October  3, 2022  12:17:32
       Step Size:    0.127E-01 s, Total Time:       7.17 s
       Pressure Iterations:      2
       Maximum Velocity Error:  0.27E-01 on Mesh   1 at (  16  17   5)
       Maximum Pressure Error:  0.73E+03 on Mesh   1 at (  16  17   6)
       ---------------------------------------------------------------
       Max CFL number:  0.87E+00 at (  15,  17,  20)
       Max divergence:  0.46E+01 at (  11,  15,   6)
       Min divergence: -0.15E+01 at (  17,  15,  23)
       Max VN number:   0.70E+00 at (   2,  17,  29)
 
       Time Step     600   October  3, 2022  12:17:42
       Step Size:    0.120E-01 s, Total Time:       8.35 s
       Pressure Iterations:      1
       Maximum Velocity Error:  0.12E-01 on Mesh   1 at (  17  16   5)
       Maximum Pressure Error:  0.48E+03 on Mesh   1 at (  12  17  24)
       ---------------------------------------------------------------
       Max CFL number:  0.86E+00 at (  12,  17,  24)
       Max divergence:  0.45E+01 at (  16,  15,   6)
       Min divergence: -0.15E+01 at (  13,  17,  11)
       Max VN number:   0.64E+00 at (   2,  17,  29)
 
       Time Step     700   October  3, 2022  12:17:52
       Step Size:    0.130E-01 s, Total Time:       9.62 s
       Pressure Iterations:      1
       Maximum Velocity Error:  0.18E-01 on Mesh   1 at (  17  16   5)
       Maximum Pressure Error:  0.29E+03 on Mesh   1 at (  14  17  30)
       ---------------------------------------------------------------
       Max CFL number:  0.80E+00 at (  31,  12,  30)
       Max divergence:  0.41E+01 at (  17,  15,   6)
       Min divergence: -0.15E+01 at (  14,  17,  14)
       Max VN number:   0.76E+00 at (  14,  17,  27)
 
       Time Step     728   October  3, 2022  12:17:55
       Step Size:    0.115E-01 s, Total Time:      10.00 s
       Pressure Iterations:      1
       Maximum Velocity Error:  0.25E-01 on Mesh   1 at (  14  17   5)
       Maximum Pressure Error:  0.32E+03 on Mesh   1 at (  14  17   7)
       ---------------------------------------------------------------
       Max CFL number:  0.74E+00 at (  14,  17,  19)
       Max divergence:  0.45E+01 at (  16,  15,   6)
       Min divergence: -0.13E+01 at (  15,  17,  10)
       Max VN number:   0.54E+00 at (   2,  17,  29)
 


 Time Stepping Wall Clock Time (s):       71.978
 Total Elapsed Wall Clock Time (s):       74.056

STOP: FDS completed successfully (CHID: FireWhirl1)
